    23
        -45.37063496  Gyration_radius:  2.44929890729 Dipole_moment: 4.619
 S          -2.05668609829155   -1.05500510022982    0.01798641702714
O          -2.91508006977015   -0.02356340469445    0.55924134802960
O          -1.61677041383306   -0.79542262209175   -1.33799240356198
O          -0.92281601175176   -1.39318202766947    0.88228096865206
O          -2.94783641594852   -2.37731727538685   -0.02296952464536
H          -3.81885374773093   -2.02366536227396   -0.17223347141472
O           0.74852488703342    2.15659195063388   -0.00040597553701
H           0.66575791495410    3.11080608502533    0.02997545975299
O           2.83632935249960    0.63377315615140    0.81926988189353
H           3.63668550426890    0.97029612158774    0.41377416334979
H           2.12398424507997    1.27027834451108    0.59730840147141
O          -0.94107199586551    1.20983054837276    1.73733933265231
H          -1.79026819216087    0.93712006544352    1.32387561266556
H          -0.57511635107678    0.37219216154598    2.04266507901098
H           0.06806365339449    1.80784643551142    0.64542562122057
O           0.56683590683911    0.40214413892311   -2.15297596537255
H          -0.34340356284825    0.04379894655188   -2.06016424423265
H           0.59559232499938    1.17641277935602   -1.56583129077277
H           1.13253085241088   -0.70735163739654   -1.20819920305329
N           1.36066421533938   -1.31188834191899   -0.35000671522322
H           2.02714574729900   -0.76462046245413    0.23236305653871
H           1.73251076676398   -2.21917811085848   -0.60526764537470
H           0.43327747837617   -1.41989640865883    0.17454110696666
