    23
        -45.37063534  Gyration_radius:  2.44917392249 Dipole_moment: 4.622
 S          -1.68096181013653   -1.58408455290918    0.08398000675627
O          -1.71857533149162   -1.90287321118496    1.49472275526096
O          -2.21559039960865   -0.27499420267442   -0.23224798649934
O          -0.36456558307767   -1.77622163694449   -0.53007552664012
O          -2.62265185641510   -2.65870299745541   -0.62498351206526
H          -3.27716814747037   -2.82130422610377    0.04675982739139
O           0.98989000040561    1.43525715245238    1.47320921012537
H           1.15323361702950    1.83636714527571    2.32804320871635
O           2.70826113977117    1.18916548129819   -0.60864130264737
H           2.18462104749532    1.28949090093375    0.21455786408699
H           3.08170211263189    2.05084001776657   -0.79939480971732
O          -0.94442027441471    2.00617957131456   -0.44527033637270
H          -0.36986731302812    1.98412335474223    0.33853270293385
H          -0.14345390023197    1.08960885366908   -1.42617734315227
H          -1.60900191633974    1.29783933656793   -0.29626653140187
O           0.73869221138363   -1.12102826348039    1.88957091801838
H          -0.20173664253375   -1.39758072646133    1.96299411735892
H           1.02460384577011   -1.55575974522770    1.07835579239116
H           0.85999440355935    0.45975056387526    1.65542570041112
N           0.46457355517082    0.30651804028873   -1.83973504092897
H           0.36953942050852    0.23509098357671   -2.84596270255114
H           0.12831080787730   -0.59294745707261   -1.36584362664324
H           1.44457101313775    0.50526563775812   -1.55155339483156
