    23
        -45.37063514  Gyration_radius:  2.44919272532 Dipole_moment: 4.616
 S           1.18295037488915    1.14018709687064    1.62567389651719
O          -0.16514057776145    0.85033497300047    2.07075040357109
O           2.15609938174370    0.15021605016420    2.03351451489788
O           1.20969175983286    1.43880330186187    0.19142255630841
O           1.62890802858049    2.49807403198478    2.33374595168686
H           2.02444976646423    2.18026473188121    3.13908654107738
O          -0.36721430674277   -2.18589438951672   -0.54570658740028
H          -0.26323531553621   -3.13546743966289   -0.46954763651111
O          -0.97481204983355   -0.74388052422359   -2.75961418820091
H          -0.71667454783889   -1.35209161481086   -2.03482358345273
H          -1.76127738704855   -1.11747420584036   -3.15985369064905
O           1.99851587382435   -1.15196300251876   -0.22140091657931
H           2.00380864553859   -0.32674583810653   -0.71917261749949
H           2.15096473415464   -0.84901204387421    0.70128205204549
H           0.54292248640560   -1.80271590297641   -0.38281528561919
O          -2.06273274794028   -0.44703062559037    0.81285410999478
H          -1.66430306423255    0.64727434318918   -0.22981618509106
H          -1.57817557218493   -1.21581201632766    0.46751395117726
H          -1.46703890972672   -0.04969831182166    1.48577840685501
N          -1.12193270046996    1.25030402696680   -0.93426826667501
H          -0.15784029734799    1.40210647974068   -0.49339114127482
H          -1.57580226458294    2.13870964674609   -1.11128893043142
H          -1.02213133013028    0.68151123289479   -1.79992335477593
