    23
        -45.37063518  Gyration_radius:  2.44912357532 Dipole_moment: 4.617
 S          -1.22009176928169   -1.18115320532079   -1.56773223645904
O          -0.88789691278263   -2.01578489469531   -0.43088899453942
O          -2.51919776744418   -0.55210935476017   -1.46825442365451
O          -0.13262553835888   -0.24629763039148   -1.86844799607415
O          -1.30169458277989   -2.13607109967402   -2.84272953650323
H          -2.21763429813236   -2.39502696411350   -2.83729288958747
O          -0.46573456650327    1.26419631661590    1.84285637898652
H          -1.02767902837128    1.70705535240561    2.48033643031429
O           2.04976958819277    1.93348591247085    1.08521744080740
H           1.12774362178485    1.80679614491986    1.39454921246501
H           2.58817142330533    2.03378191493729    1.87154782799706
O           0.41776167079411   -1.37314643654580    1.74819440382048
H           0.00709956128531   -0.52267945665080    1.97862684618049
H          -0.18315739111068   -1.77637354305809    1.08348758260658
H           1.41026258501919   -0.92847867883975    0.62529135491477
O          -1.53902963411229    1.66056920759290   -0.49416919286502
H          -0.81557757622520    1.64044241390994   -1.13056489137618
H          -2.10025207089417    0.90618263477157   -0.78096409080204
H          -0.91118085273403    1.39530156354398    0.95620770224507
N           1.86021290715740   -0.43353131397677   -0.21529080454380
H           2.66024644918418   -0.93893718021257   -0.57740383206718
H           2.11262117786845    0.52479719382463    0.10211092714455
H           1.08786300409362   -0.37301890674384   -0.95468721899299
