    23
        -45.37063550  Gyration_radius:  2.44904795013 Dipole_moment: 4.620
 S          -1.82292638372207   -0.43248765287240   -1.35287545129034
O          -0.58712130326452   -0.79693755397728   -2.01586005274962
O          -2.45452955069778   -1.53107856488588   -0.65473275885360
O          -1.64376841300796    0.76589169529802   -0.52905998338353
O          -2.85315729419357    0.00436956170214   -2.48944034241694
H          -3.26825191823376   -0.82362908139550   -2.70877444818456
O           1.20751505675676   -1.15017828617314    1.55744514592327
H           1.42511501845760   -1.89450519789209    2.12046196393611
O           1.73876636861846    1.47423063615255    1.98073193949390
H           1.55783049045416    0.51086963643709    1.94763447535813
H           2.67223462802901    1.56826767195010    2.17600904134732
O           1.86400418954302   -0.65296655579862   -1.10100061926413
H           1.03825637187018   -0.89649428726275   -1.57475087714948
H           1.34546160411670    0.80569608276683   -0.88447276943331
H           1.76102808718004   -1.01981199873240   -0.20666307274733
O          -1.38061991271156   -0.89312322138205    1.63528280530704
H          -1.82123619976251   -1.32857223394532    0.87200355078833
H           0.20866365218332   -1.08775146567102    1.56991022409587
H          -1.56478786323088    0.04040049708995    1.48225755545169
N           0.79224192839113    1.66318043563272   -0.54871979721785
H           0.93715665550352    2.47192981378364   -1.14163545048406
H           1.08339826604751    1.84047354807903    0.43448392823401
H          -0.23527346832030    1.36222651103876   -0.56823502676856
