    23
        -45.37063524  Gyration_radius:  2.44915576237 Dipole_moment: 4.619
 S          -2.05338760628191   -0.91705541754412   -0.53311601297831
O          -1.15496827214283   -1.92486050147393   -0.00704008534875
O          -2.91231930710888   -0.32305524983295    0.46830996635438
O          -1.32630302180414    0.06304492898259   -1.34407368862941
O          -3.03137213598378   -1.64971942239681   -1.55829641471677
H          -3.74812237824033   -1.91626409889121   -0.99148676933246
O           0.95785294520762    0.93992720371259    1.84645545922150
H           0.98507874948851    1.26653103783044    2.74693165680254
O           2.44947611518914    1.74507852739027   -0.26929703182224
H           1.93495451334762    1.56204219983204    0.54534544149624
H           3.37376246477284    1.71751508508996   -0.01793345592228
O           1.30213826025382   -1.63841000974416    0.85748389701756
H           0.37789123827299   -1.93174306548376    0.69855279698740
H           1.37926969287652   -1.00708767086686   -0.57061930945250
H           1.22406740378510   -0.84071263989327    1.40762301750550
O          -1.31889642093548    1.70729165464632    0.84749434889653
H          -2.00515767013099    1.00517734673322    0.89853938339284
H           0.06304911668305    1.21167409826879    1.48970650841929
H          -1.18059668663610    1.80015114960661   -0.10173058460615
N           1.23075521766240   -0.37684698151249   -1.42773641263590
H           1.72301917869800    0.51826083233007   -1.22939987649363
H           0.17506319831494   -0.20194699472609   -1.47071795187667
H           1.55474541468461   -0.80899201212739   -2.28499488222919
