    23
        -45.37063549  Gyration_radius:  2.44908812123 Dipole_moment: 4.620
 S           2.29226334964227   -0.13366542280595    0.26170268808141
O           1.95050527929006    0.44406173378650   -1.02246507376982
O           2.52803889351969    0.84871609747688    1.29740218541764
O           1.33316240905880   -1.17404313972318    0.64192349768731
O           3.67670490100723   -0.90354958297677    0.07566426499296
H           4.31017443361089   -0.21968977846753    0.26814796343087
O          -1.62298912599169    1.54145691254492    0.44218410005938
H          -1.97834074173563    2.36552828356338    0.77833106287347
O          -2.89776765089066   -0.83455234054712    0.16393991019759
H          -3.70897774900051   -0.68972738879542   -0.32520096152606
H          -2.52150052462548    0.05258724901437    0.34655957865339
O           0.08914720052513    0.69676168258530    2.21007313216639
H           1.01283146323360    0.94350557449895    1.98123365526115
H          -0.94178243187976    1.24927934237411    1.11475177721342
H           0.10186215891546   -0.26411608063436    2.13711478681061
O          -0.42383619196711    0.96228596671898   -2.00188275560426
H           0.53261793590827    0.96058828991339   -1.77634580337887
H          -0.54635647535450   -0.54979749121975   -1.62527841567687
H          -0.86331359486796    1.37796413244785   -1.24091902746368
N          -0.58258695074771   -1.47692487589983   -1.08378679665872
H           0.22576583349919   -1.42693795195915   -0.38322932992884
H          -0.47827893580871   -2.28196863417624   -1.69013096783216
H          -1.48734349530318   -1.48776259771146   -0.56978947099928
