    23
        -45.37063533  Gyration_radius:  2.44914747358 Dipole_moment: 4.622
 S          -1.55164617037283   -1.45201424395743   -0.90874038633308
O          -1.91138329375539   -2.25700602909863    0.23844450573609
O          -2.07211026976591   -0.10060581702943   -0.85881703438817
O          -0.11636702973409   -1.45179878408816   -1.20328029930925
O          -2.22582925979264   -2.16790248236320   -2.16460805595554
H          -3.01309010302300   -2.54036429314671   -1.78055205442133
O           0.51126909748700    0.77434948406178    2.08522062505816
H           0.43495419751045    0.83475368644558    3.03855006389418
O           2.69770806571667    1.23926274181195    0.55142933600545
H           3.05326433077082    2.09925398885080    0.78027434877561
H           1.98412458032538    1.05295892962612    1.19796500253350
O           0.32358380745843   -1.75041984983699    1.48462643129297
H           0.82682774178222   -1.87360613835625    0.67203259156845
H           0.40086789796901   -0.19654746062823    1.86853883365880
H          -0.58739817026675   -2.00395187124784    1.21561374247726
O          -0.92725088402352    2.06122751225755    0.08039634317108
H           0.14260323395175    1.53507127809314   -0.93040695656272
H          -1.56409763720412    1.36893010199194   -0.20378700367712
H          -0.56070927767473    1.73893326803238    0.92114035434756
N           0.87937415679915    0.93474110593063   -1.43128164924829
H           1.74560253140044    0.98384051478050   -0.85672326362485
H           1.03700378791174    1.23461390401602   -2.38616865295998
H           0.49269867650307   -0.06371955616116   -1.40986683201239
