    23
        -45.37063533  Gyration_radius:  2.4491649584 Dipole_moment: 4.622
 S          -0.54821175795691   -1.94388684846713    1.12372992008147
O          -0.10396558231437   -2.95933872591200    0.19372107566008
O           0.53520695138895   -1.24773493554527    1.78797033137917
O          -1.50778018755943   -0.99684660711890    0.55003741360613
O          -1.36639563266430   -2.72154709786701    2.25068165199913
H          -0.91509257076214   -3.55908751834724    2.27998248906516
O           1.45225954600804    0.59360857267432   -1.65777548860344
H           2.11668218568499    0.44623258745502   -2.33240973017737
O          -0.41482969428398    2.55627495993499   -1.55272627529682
H           0.02405960353213    3.40071836080346   -1.66503454889169
H           0.26496282436682    1.86706420123185   -1.71015998552033
O           1.72707729512640    0.97742221407936    1.08486469193156
H           0.22310539770831    1.40254573808688    1.10691737111690
H           1.50209151842325    0.09250734173287    1.44805878547574
H           1.86406178890993    0.83363109629805    0.13322075666586
O          -0.25610155146737   -1.35858586949738   -1.86034660546598
H          -1.10087566789180   -1.01222148509808   -1.55190946164654
H           0.82488493832127   -0.18330837186070   -1.72531173442449
H          -0.07321233724324   -2.08340657513982   -1.22183074835086
N          -0.82768726537213    1.48404749818420    0.89883355853281
H          -1.17408113986384    0.47618696699454    0.79327159489641
H          -0.91425258780963    1.97808581545220   -0.01292620302958
H          -1.33190607428564    1.95763867188765    1.63914116099541
