    23
        -45.37063557  Gyration_radius:  2.44906791619 Dipole_moment: 4.623
 S          -2.02056560072441    0.06877371257038    1.11933662153146
O          -2.15821512526753    0.57765325805747   -0.23041666037355
O          -2.33613188825215   -1.33751716375852    1.24578948763554
O          -0.72205686473474    0.43632302458817    1.68984763268279
O          -3.09263054036657    0.83316659799131    2.01954818314776
H          -3.85810978857412    0.27407287425183    1.93293581770317
O           1.10027653270027   -1.49520179269302   -1.32660527652202
H           1.23564951835515   -2.32925929425002   -1.77867095595857
O           2.97907061799255    0.24232235659333   -0.43242897728655
H           3.58021185856556    0.43818030150010   -1.15259400696390
H           2.38622111463987   -0.47072312329615   -0.75185775362660
O          -0.33476121427893    0.75950496183119   -2.10322434297995
H          -1.17088486842306    0.66675068461677   -1.59535644881865
H           0.34018988005400    1.51433049893471   -0.91246433552396
H           0.09808615863088   -0.10864331547400   -2.04012642124299
O           0.15717369767918   -2.07287939054576    1.02867339322128
H           0.70464515845958   -1.73284526916474   -0.43851155996530
H           0.43744117611033   -1.36074761007185    1.61440919094190
H          -0.82316587976269   -2.00860494675404    1.06357520439086
N           0.78319618841120    1.75510641058647    0.03613968696798
H           1.73048668411844    1.32438499632996    0.04158755007981
H           0.16705941315562    1.27203696227391    0.76673606132647
H           0.81681376150875    2.75381524589107    0.20367788963056
