    23
        -45.37583669  Gyration_radius:  2.28606094389 Dipole_moment: 1.604
 S          -0.58783128355229   -1.36663354097154   -0.69930606068500
O          -0.63940857030721   -0.26394242060958   -1.65231354018120
O           0.74893964943211   -1.59599261101427   -0.18624297844812
O          -1.55641085587635   -1.22204502533925    0.36940192241100
O          -0.99480362843259   -2.65210084287849   -1.52970338253202
H          -1.05308159067105   -3.33144091849646   -0.86530905970588
O           0.10488040965016   -0.61654854228253    2.51050729698544
H          -0.33253419330965   -1.04950165863202    1.76054000866549
O           1.77776804732074    0.62107650477067   -2.45895630394128
H           2.22602065712129   -0.04838937280994   -2.97740437752838
H           0.88059804505468    0.27253525215975   -2.28773071121565
O           1.98909020276118    0.69592920717554    0.24300256680249
H           1.04369950328981   -0.62737472954274    2.31375212284201
H           1.64299733671313   -0.22291952280849    0.19072667209085
H           2.26852165801022    0.87076886650998   -0.67373639376637
O          -2.00542590929509    0.98063293152151    1.92441437263753
H          -2.24513942310514    0.19045385924052    1.41020097503386
H          -1.36219599974683    0.63762516206940    2.56684803729454
H          -1.04787186208983    1.60407193589390    0.83305678852033
N          -0.38783973202173    1.77938311490301    0.01085819734351
H           0.61374435071182    1.49755950266199    0.26143523367231
H          -0.43211312937523    2.73934201181272   -0.31496485583305
H          -0.65160368237452    1.10751084664731   -0.74907654046767
