    23
        -45.37063552  Gyration_radius:  2.4490936912 Dipole_moment: 4.624
 S           1.56594993427277   -1.58560909162599   -0.61181552111824
O           0.21929531981554   -2.08561159151023   -0.80209035751625
O           2.13958751390153   -0.99245196103859   -1.80024159955357
O           1.64567450046284   -0.72830045366132    0.57368030018510
O           2.48785973479224   -2.84143575882074   -0.26969117182709
H           2.76380430887347   -3.12581045091284   -1.13517507445801
O          -1.13330094191822    1.68613497884856   -1.03958756957243
H          -1.36903428536293    2.26222651264866   -1.76820302826256
O          -1.27102417765494    2.21175278109010    1.61620073834866
H          -1.21873178650832    2.14164324691683    0.63934396122887
H          -2.15200144198302    2.53006819519001    1.81847811645333
O          -2.05693653444761   -0.85649148286800   -0.38531625617971
H          -1.33578006741910   -1.43734967577085   -0.71417921776296
H          -1.33550345955806   -0.68940169691554    0.99133393762337
H          -1.88751945082308    0.01158389627714   -0.78877112738701
O           1.45496546209153    1.42719704872628   -1.10638733797463
H          -0.14133582643102    1.56825927276043   -1.10126832520329
H           1.73383208845345    1.26493215359634   -0.19827010057368
H           1.73643122699010    0.60672222272820   -1.56897320772574
N          -0.64045293587560   -0.41699660333898    1.76380154738719
H           0.33007383056790   -0.57482909543093    1.33961321863971
H          -0.75718213465128   -0.97448006912501    2.60177820426063
H          -0.77867087759302    0.59824760225831    1.94573985099686
