    23
        -45.37063575  Gyration_radius:  2.44891763976 Dipole_moment: 4.623
 S          -1.43287118447498   -1.59866894616385   -0.85416004211129
O          -1.62177055627919   -2.46347665344915    0.29023464852409
O          -2.10110833305055   -0.31853191650163   -0.73327944961553
O          -0.02962108278302   -1.42524702006249   -1.23814500179032
O          -2.10102475705425   -2.36096305076784   -2.08554504164098
H          -2.82357396740672   -2.81761297898360   -1.66669150436879
O           0.55852900457599    0.77441910826596    2.07128821117832
H           0.54044782398666    0.80237136391996    3.02902314909882
O           2.56929821187701    1.53144396668571    0.41847292454169
H           2.83716036756979    2.42136586432301    0.65215713266543
H           1.92665620157893    1.24639802552685    1.10232290598861
O           0.62287423264752   -1.73970001486409    1.40433459496014
H           0.54698305569115   -0.19724548502854    1.83134685085225
H          -0.27029302431092   -2.08827561243403    1.18702283019061
H           1.07980705183596   -1.78361990204844    0.55696354971430
O          -1.14999272021017    1.93509498804150    0.20550867761127
H          -0.09625368281664    1.56361529033649   -0.88743320995230
H          -1.72090704319701    1.18108322330596   -0.06153040499917
H          -0.69410174109064    1.63585040561826    1.01026600791941
N           0.66945984130877    1.06581431789226   -1.45315771871344
H           0.72725231216942    1.40536036250848   -2.40604383826236
H           0.40214512552166    0.02903206377426   -1.43925277317717
H           1.56090485399229    1.20149261012579   -0.93370251862504
