    23
        -45.37063534  Gyration_radius:  2.44906713649 Dipole_moment: 4.616
 S           1.71306581307173   -0.04191555648848   -1.55036589299451
O           2.64123709380143    0.91648304892822   -0.99062120668036
O           1.64876399557742   -1.28885971004308   -0.81508332687211
O           0.37199610885189    0.50078314275870   -1.78264130412517
O           2.27243538060109   -0.38342906844993   -3.00453085173517
H           3.21230763248372   -0.29925388324656   -2.87964652039787
O          -0.22827011664888    0.59918618420560    2.19020564686590
H           0.05691501082921    0.94941749162841    3.03539630276822
O          -2.73171869464982    0.57907783275577    1.14992144522613
H          -3.32708598524865    0.19758561206206    1.79666158780704
H          -1.86393755936902    0.67805216750549    1.59606040630867
O           0.02259053338684   -1.96040265454340    1.12683617127801
H          -0.96993468910838   -1.51684185917436    0.00373120352800
H           0.78625745222541   -1.86503373735664    0.51584911033429
H           0.04077551338719   -1.16273055843318    1.68222910554679
O           0.78497255978185    2.15133121340065    0.36405057485658
H           0.19843753113301    1.18478192268409    1.49972727204924
H           1.62145037304039    1.79268338903745   -0.00747749768008
H           0.18438399633366    2.11104906473424   -0.38859533973911
N          -1.50960962304721   -0.94269178651033   -0.72650406368721
H          -2.14783605925646   -0.31251310764589   -0.19886131317584
H          -2.00952520556194   -1.52844990540435   -1.38496300624261
H          -0.76767105162250   -0.35830922236905   -1.23137847325421
