    23
        -45.37063551  Gyration_radius:  2.44911925307 Dipole_moment: 4.623
 S           1.27238563743718    1.61443996008090   -1.05639811241608
O           1.13034773805085    1.23927353632282   -2.44652102837418
O           0.07338320143821    2.19217213237508   -0.48341672495552
O           1.79762717965219    0.54290230520885   -0.20625915332162
O           2.39672240310705    2.74541392555250   -1.02847554060827
H           2.26103806030366    3.17932744778968   -1.86476137024046
O          -1.69486321532892   -1.40939800986426   -0.58861348789648
H          -2.31970494885355   -1.82457154343858   -1.18488586287532
O          -0.61817035204333   -2.43303591840883    1.67894177974201
H          -1.32910149773626   -2.75028202647901    2.23772531033532
H          -1.02862188784886   -2.17763050180446    0.82560211657929
O           0.55959555677743   -1.24150195082531   -1.87695965008771
H          -0.84556690530521   -1.31967287438436   -1.11051120252885
H           0.68846613251320   -0.35812327246643   -2.28865815686716
H           1.25524226716678   -1.26870803681881   -1.21056830701545
O          -1.86445257352401    0.99168416503236    0.80842915074298
H          -0.60304805095247    0.53462404617184    1.61012246968248
H          -1.31961552212372    1.59767281299323    0.25922892236744
H          -2.01934485038382    0.21219334488168    0.24856198906676
N           0.33489439945538    0.09221849713987    1.89067922973599
H           0.99764585282977    0.29292011710042    1.07387023680040
H           0.17232945135371   -0.93313067675552    1.96199294634598
H           0.70281193401957    0.48121253060627    2.75087445580389
