    23
        -45.37063541  Gyration_radius:  2.44910728476 Dipole_moment: 4.622
 S          -1.61517913897771   -1.62821286663785    0.28512936522743
O          -0.57379696650476   -1.74864633525337    1.28546279682195
O          -2.75172584022316   -0.84559040420679    0.71984618433070
O          -1.06079929067820   -1.20021698958951   -1.00178848161664
O          -2.18025257407677   -3.09565223355226    0.01792222311322
H          -2.87437044875217   -3.16145747233845    0.66594449215095
O           0.35865727637460    2.11993282104309    0.76617379952064
H           0.15196760558416    2.92224114832327    1.24770032320086
O           1.89444532959301    1.84984500905415   -1.45167946729980
H           2.73896858186478    2.27299319754538   -1.29029763069510
H           1.32543074710612    2.06381097259370   -0.68207763473614
O           1.54254291891285   -0.24361153603984    1.63545862403247
H           1.67330573404897   -0.65114518406949    0.13202254595590
H           1.16420716567152    0.64803674691836    1.55235899283914
H           0.77013926409040   -0.84015749608833    1.74976903289216
O          -1.85070046637702    1.34643952622463   -0.37006783922881
H          -2.31979458170562    0.65931116753468    0.15364640425995
H          -0.50726601390027    1.81666387938325    0.36624278906494
H          -1.59286943080932    0.86768757345071   -1.16570199553494
N           1.49874551602703   -0.77540816006121   -0.92064934943558
H           1.69154975328706    0.14497258889128   -1.36627322897240
H           0.45613847539476   -1.00374235432451   -1.00940310884672
H           2.06065637412192   -1.51809359875970   -1.31973883700693
