    23
        -45.37063523  Gyration_radius:  2.44920952313 Dipole_moment: 4.619
 S          -1.40029387067936    1.83029215493262   -0.17766065945539
O          -1.36668999052653    2.36050234971039    1.16814881305819
O          -0.17289849229281    2.04149960110971   -0.91824366902388
O          -1.82290981047794    0.42919459962117   -0.24988382658243
O          -2.54812221833999    2.64223170798363   -0.93097975395986
H          -2.50182743531436    3.49156325260403   -0.50380635159985
O           1.67781582099991   -0.66379326409702    1.39727248102799
H           2.26126579262261   -0.60043121567505    2.15484005436411
O           0.82299639186120   -2.90268539174787    0.13030402422301
H           1.15333614523413   -2.16407961227951    0.68459286736962
H           1.58668981833232   -3.43676652269752   -0.09303440927811
O          -0.68062201675889    0.07155051645353    2.21450557102681
H          -1.31658180455794   -0.39369596034055    1.65963660039936
H           0.78565942349639   -0.34385001063516    1.71876895268897
H          -0.86796645172723    1.01546945044251    2.01368958351066
O           1.89891391607052    0.45298898708581   -1.14225040697672
H           1.29376798891818    1.22540122509745   -1.08957336272067
H           2.02731011357557    0.16810790732459   -0.22169514226841
H           0.72168215724386   -0.47791500995236   -1.57900576698119
N          -0.17705551706815   -1.06634584293395   -1.58947059924335
H          -0.91133793845691   -0.47016855914810   -1.08734908156191
H           0.01874783467664   -1.92091487173637   -1.02885847263726
H          -0.48187985683872   -1.28815548113650   -2.52994743537477
