    23
        -45.37063523  Gyration_radius:  2.44916341025 Dipole_moment: 4.616
 S           1.42222314965099   -1.15474986238522    1.40898770042449
O           0.64549942789838   -1.21519084563292    2.62819701565347
O           0.92252197824975   -2.01590308530748    0.35623808369744
O           1.64021138421922    0.20715818120006    0.91451351146977
O           2.87517765983912   -1.68505535042909    1.79854287575646
H           2.67805849750237   -2.31640979092526    2.48304510199106
O          -2.24297458968178    0.40839882090063   -0.10724438589608
H          -3.15290351252624    0.37660573840036    0.19161031611181
O          -1.05946018888727    2.29153383580353   -1.65726300695397
H          -1.58930248791606    2.41289810283996   -2.44641520298901
H          -1.57003520404668    1.69524026869767   -1.06936441314090
O          -0.78652345073179    0.87224286427906    1.99853089949035
H          -0.00295742401180    1.33966275476710    1.68818096308249
H          -1.69475222286597    0.55096181505710    0.71791369307559
H          -0.40994016562539    0.04839331818970    2.38065290863063
O          -0.76231411369749   -1.44169973551760   -1.56665135501546
H          -1.45004086696383   -0.95208508673754   -1.08461378810837
H           0.32532968648247   -0.33250893908095   -1.73929164841645
H          -0.22756506262930   -1.88444809825924   -0.87121861937974
N           0.97530661669425    0.50730682678229   -1.57685386808170
H           1.75692235315542    0.52039688318898   -2.22144669272857
H           1.32146546811348    0.40605813416502   -0.56846289025746
H           0.38605306777546    1.36119324000333   -1.65758718841859
