    23
        -45.37063533  Gyration_radius:  2.4492087344 Dipole_moment: 4.623
 S          -1.83419564636544    1.31076656108146   -0.50970770193054
O          -1.69912569764506    0.21703115526063   -1.45058495602868
O          -2.72209603249982    1.02149050054801    0.59546389305019
O          -0.52144281362213    1.81361084281756   -0.09645678540432
O          -2.50728945337539    2.52457587981476   -1.29561782081273
H          -3.43442586858363    2.35918607369545   -1.15726542402169
O           0.40065286698130   -1.85340353450224    1.26961000515170
H           0.18136956930053   -2.55996804167129    1.87871222925304
O           2.81073263373110   -0.67763807919948    0.87179188365431
H           1.98148282505565   -1.13633639570960    1.12437536915967
H           3.46104835657642   -1.36258214185890    0.70987662907397
O          -0.77264101590004    0.28913570657490    2.16644380390167
H          -0.08656212335552   -1.04724621687178    1.60783774284743
H          -0.23427773730034    1.03400368218420    1.87652975396918
H          -1.63313232601126    0.45796182513640    1.72203122780166
O           0.08870617142620   -1.69787244255137   -1.49164261697672
H           0.98164302018117   -0.41566818277958   -1.45138289154242
H           0.10899244620726   -1.96604526823261   -0.55746879780609
H          -0.72352634231122   -1.15254254478537   -1.58417779552610
N           1.45423412738069    0.50173944988091   -1.15284893418693
H           1.90478913787784    0.97359414281524   -1.92808658264205
H           2.12714367958269    0.25917993466941   -0.39706452044233
H           0.66792022267188    1.10702707371208   -0.75036772053246
