    23
        -45.37063508  Gyration_radius:  2.44930923523 Dipole_moment: 4.620
 S          -2.15193178195476    0.06133571782301    0.84221203570561
O          -2.11851670582847    0.50824803252096   -0.53569033643111
O          -2.45416369157025   -1.34581193612990    0.99076136188339
O          -0.94791598492896    0.48583723689730    1.56137238583158
O          -3.34906906799002    0.83561021912434    1.55749050682411
H          -4.08136747408608    0.24557638973119    1.41053021235424
O           1.29568478020260   -1.51801605344838   -1.10836927430619
H           1.50569978216113   -2.36598304447784   -1.50226851508703
O           3.00423741852116    0.30086620345795   -0.04936428347827
H           2.47353785297240   -0.43917679325547   -0.41348786755310
H           3.69099504121414    0.48404658130966   -0.69206653837617
O           0.06132336679860   -2.02371523548723    1.12587496923193
H          -0.91640146156189   -1.98369872907146    1.03172959192909
H           0.79054383183102   -1.72945791138774   -0.27066952182849
H           0.24856130897127   -1.28228914333382    1.71238743926209
O          -0.06897527091867    0.66737265611451   -2.16050438699514
H           0.36989245337393   -0.18602173943561   -2.00510422666268
H          -0.96259084137072    0.57208204299060   -1.76308345574716
H           0.42675619573712    1.48525122212898   -0.92407858686116
N           0.73575973577170    1.77448619631196    0.06328781534596
H           0.03822990384177    1.30551785343783    0.72686284994941
H           0.72731876975456    2.77957878341372    0.19109925419588
H           1.68239181907105    1.36836144077639    0.21107858081294
