    23
        -45.37063494  Gyration_radius:  2.44936488759 Dipole_moment: 4.623
 S          -1.15565052129809   -1.85853954559850   -0.74481731735433
O          -2.01063293885144   -0.68910467526338   -0.71503761238176
O          -0.54046812379052   -2.09743215280546   -2.03238099077243
O          -0.20490800750204   -1.84270289587017    0.37000852773890
O          -2.08487236167278   -3.12583644654006   -0.47143450618915
H          -2.34882155157627   -3.37050629239418   -1.35262639353889
O           1.21437403867067    1.68040988008270   -0.95577028420203
H           1.63515258537945    2.15496898221095   -1.67411356491560
O           1.92837448351137    1.62672946041839    1.65918684702568
H           2.01443466078431    2.52915078221561    1.96993202649438
H           1.78494077954785    1.67938234445100    0.69045881745105
O          -1.41011515779935    1.76905642876523   -0.03500368660198
H          -0.92859353732154    0.95668649566514    1.21040261024101
H          -0.56953523481425    1.90104114667220   -0.50516545738121
H          -1.80263237788780    0.96148622519210   -0.43409162451548
O           1.65522201779580   -0.84895992417307   -1.38012446889160
H           1.36127026758528    0.71036271578267   -1.15334133914754
H           1.66167379905524   -1.27217910136005   -0.51433781452613
H           0.90230345638035   -1.29115941316603   -1.83180034972956
N          -0.40909227732810    0.27476087411000    1.85790513445494
H          -0.33950218631948   -0.64105712021081    1.30711965251778
H          -0.89706684877651    0.12682121787262    2.73345768991368
H           0.54414505622447    0.66662100393472    2.00157409431319
