    23
        -45.37063526  Gyration_radius:  2.44916799569 Dipole_moment: 4.620
 S           0.21562522610025   -1.82791776804892   -1.39792479921870
O           1.46245765464246   -1.53874537043516   -2.07269358019425
O           0.37925744271076   -2.21317088204521   -0.01067233032091
O          -0.78878095981277   -0.76985526774478   -1.53441324064437
O          -0.40610095377556   -3.08211339295094   -2.16254826571323
H           0.37456064137733   -3.55003911327208   -2.44116392849968
O           1.39995908105346    1.55825215294450    0.90482579584328
H           2.23671453624839    2.00190711651950    1.05101089399815
O          -1.09603370693382    2.60337870109187    1.06778280218426
H          -0.15454376484903    2.33917552646687    0.99264087601293
H          -1.18739722423330    3.04432490910214    1.91365938349079
O           1.27704533300317    1.02692910428202   -1.63942630697552
H           1.38468908063681    1.32927972798466   -0.06935896518713
H           1.55958665605207    0.10747425420650   -1.84258725478029
H           0.34109088170396    1.01695492224786   -1.86894514014376
O           0.32358543244694   -0.69869502923450    2.12678614553970
H           0.49745266903428   -1.40369416158672    1.46465379670677
H           0.87534577596776    0.05190698250068    1.84894301340773
H          -1.03210361015401   -0.34162151311023    1.43572142855454
N          -1.77436884744031    0.00292402764188    0.73968607512874
H          -1.75210361344562    1.04287728872439    0.76935011301178
H          -2.69578531562120   -0.36523470723378    0.94481521685594
H          -1.44015238471541   -0.33429748802951   -0.22014174902684
