    23
        -45.38066452  Gyration_radius:  2.27661875996 Dipole_moment: 2.544
 S          -1.21634067025948   -1.34416103591929   -0.71267155372256
O           0.06943722280725   -1.22028084084745   -1.39108756827072
O          -1.05044503760732   -1.33530820650820    0.73763946568223
O          -2.19238377532218   -0.38341622155734   -1.17528711448714
O          -1.78955013195281   -2.77204867180643   -1.08695443647649
H          -1.15772326940642   -3.38890512788025   -0.72927553430902
O           2.09687695354416    0.72246996314154    1.13837664181247
H           2.93089052722422    0.85734557764942    1.58944640821854
O           1.15732129261453    1.23149427046095   -1.41767239946604
H           0.84444945677587    0.31976507845870   -1.59207331125325
H           1.65612619967685    1.17221945628029   -0.58392155781056
O           1.54623972590960   -1.81256822483550    0.71651555244342
H           0.64891979620038   -1.79582513662048    1.09541180502144
H           1.35590079662296   -1.73146575567669   -0.23520903769064
H           1.98933444948674   -0.26190579832291    1.02980936615131
O          -0.55882840341893    1.05877696526627    1.84559097435377
H          -1.03668370256165    1.78261576792686    0.50943569259460
H          -0.84104059041251    0.15025342139271    1.61251416082951
H           0.41239292658656    1.04638204385786    1.77984091097003
N          -1.19962960997565    1.93887291792317   -0.53212564545272
H          -1.67708364853323    2.80887549075230   -0.73725502381374
H          -1.74396840157695    1.09443915822787   -0.86293972637205
H          -0.24421208641121    1.86237490868093   -0.99810806894383
