    23
        -45.36629913  Gyration_radius:  2.36408432282 Dipole_moment: 2.422
 S           0.82890335215191   -1.63086776701507    0.08244060064896
O           1.56117657341628   -2.01814192003297   -1.09733108695216
O           1.39834580713280   -0.45467053258425    0.73589631523556
O          -0.60494986712935   -1.49142334714588   -0.10033580548519
O           0.99937126993139   -2.82865167281756    1.11838410961762
H           1.88328095417156   -3.11867420029896    0.92006460162550
O          -0.13191503925612    2.70652371409952   -0.12815524331918
H           0.74866843015485    2.91533040538593   -0.44736544681106
O           1.64597524917515    0.13060201625138   -2.63819645324254
H           1.76552060753820   -0.20412083240223   -3.52909768615147
H           1.71729495835151   -0.65115208702930   -2.04816385085345
O          -0.78955988722248    0.70430674648252   -1.65227163293233
H           0.04273437711093    0.61063007202144   -2.15939824585643
H          -0.84527840409279   -0.11674697758288   -1.13116657542998
H          -0.47895542142068    2.00182632226594   -0.75020252000630
O          -0.01057467730452    1.22618140109229    1.92365857063246
H          -0.98663074657398    0.72053022518577    1.90103865102635
H           0.62794213361754    0.51855171090831    1.51950423486799
H          -0.05996365615748    1.93467594367115    1.17677586706065
N          -2.14822220692252   -0.06875400791491    1.66247532493042
H          -1.73176130462936   -0.75681885706148    1.02068086459060
H          -2.88018540543657    0.42572255410362    1.16854932280585
H          -2.55121709662993   -0.55485888959046    2.45221608400168
