    23
        -45.38066393  Gyration_radius:  2.27668009393 Dipole_moment: 2.541
 S          -0.64989720750622   -1.77334348815508    0.47662884049444
O          -1.15867136992983   -0.66685198728437    1.28194790563106
O          -0.67096693691784   -1.44421175859637   -0.94454534042742
O           0.63824405807853   -2.25276993330651    0.92460738322136
O          -1.66304972980550   -2.97317343780861    0.67944525712792
H          -2.51374312816643   -2.61592970609981    0.44221365033777
O          -0.29340468289841    2.31639357244247   -0.87590598785733
H          -0.54657145334700    3.16968204316605   -1.22935881437534
O           1.25448628850400    0.21418698963320   -1.80162397693700
H           0.79275987274354    1.05695349725771   -1.64609523838605
H           0.57249396809375   -0.47690783240329   -1.67147039756319
O           0.51420087009865    1.40503010989734    1.61229081093846
H           1.73463191637307    0.50832131971598    1.11606221307027
H           0.25642469390199    1.91990441533347    0.82746101460698
H          -0.15491571523733    0.69284064569260    1.68006089117170
O          -2.29856076250038    0.62438666488172   -0.71832535733193
H          -1.86728957609706   -0.11057554520769   -1.18946321380695
H          -2.15475411902709    0.36951289106899    0.21115709867661
H          -1.11942427777453    1.75990475514738   -0.86008363970787
N           2.25790584118490   -0.24213787532862    0.56970345741223
H           2.07580110615333   -0.04196296871418   -0.46123122911289
H           1.75083762656035   -1.14725215648154    0.77617633726789
H           3.24346269751546   -0.29200019484888    0.80034831554530
