    23
        -45.38066110  Gyration_radius:  2.27671596603 Dipole_moment: 2.543
 S          -1.09472806223615   -1.57389719988907    0.34569700003817
O          -1.08942091995257   -0.55286518543918    1.38740546115137
O          -1.23762430442979   -0.97596016756896   -0.97883451991165
O           0.02934595404323   -2.47812558849503    0.44039343214899
O          -2.39141252609434   -2.45342078180210    0.57394750183240
H          -3.11813063071533   -1.86933656643938    0.37821935399417
O           0.32156683830721    2.43251499013050   -0.44471716942520
H           0.29944549606708    3.37594125451026   -0.60768627807497
O           1.17571097026111    0.85498249921646    1.66523092758618
H           0.97545312834975    1.56669981149863    1.03194769518640
H           0.33538209284534    0.36178516009173    1.76673035159029
O           0.96318783100394    0.20536211918659   -1.96200437817223
H           0.82075251453971    1.09599849677452   -1.59594158172510
H           1.86047178201139   -0.53344589269474   -0.87096347532382
H           0.12622630685657   -0.27522933675026   -1.79504164388897
O          -2.06573625401953    1.38101289009730   -0.12343986135064
H          -1.95340488608765    0.65476156045721   -0.76312747567251
H          -1.88054961793208    0.92777626297720    0.71833440855673
H          -0.62501961510084    2.14091679055229   -0.33895464216257
N           2.12605240948232   -0.97765946154431    0.06038079100117
H           1.95635164706877   -0.23370332939516    0.80469907726832
H           3.06860583741657   -1.34965879462546    0.07274375327743
H           1.39747400826337   -1.72444953083490    0.23498127207133
