    23
        -45.38066451  Gyration_radius:  2.27661891668 Dipole_moment: 2.542
 S          -1.67547824677737   -0.98838418742029    0.09928362002113
O          -0.69460977997230   -1.28880935200072    1.13762226660547
O          -1.78970580400050    0.45009692835467   -0.11780991141663
O          -1.44844305719079   -1.72567523859469   -1.12330135835888
O          -3.07607613495037   -1.47451133866176    0.65523501798304
H          -3.17948896827755   -1.01905962119689    1.48558179131560
O           1.65627538017997    1.66132269179094    0.84471674086459
H           2.19906503894297    2.31983067641579    1.27935773618371
O           0.19575082143393    1.59941936893936   -1.50756100339232
H          -0.64644582299995    1.31779407664734   -1.09410809041099
H           0.78643956370317    1.80550073206503   -0.76171163450789
O           1.87901560159881   -1.06559628232005    0.41187628163666
H           1.00651979699850   -1.29915827129266    0.79098572351609
H           1.45416196653112   -1.06496569764552   -1.12432157467627
H           2.00534817395555   -0.12512744487936    0.62914267573945
O          -0.58538039753688    1.15957157065779    2.12182835600189
H           0.84124912694740    1.54982175841474    1.40652594490671
H          -1.17916280198416    1.27866806066538    1.35880380958524
H          -0.48862410083136    0.19060240948917    2.14233461864858
N           0.86044302094225   -0.88323350580819   -1.99025779435098
H           0.67554079436613    0.16632692652154   -2.00998196651869
H          -0.07620206177977   -1.33207444245489   -1.79005766964357
H           1.27980791069408   -1.23235982769151   -2.84418359973948
