    23
        -45.36629889  Gyration_radius:  2.36436497217 Dipole_moment: 2.433
 S          -0.64731417391639    0.89464342582950   -1.45984291100167
O          -1.44358576472621    0.74254226312166   -0.24423697352303
O          -0.15937935057793    2.23929048737798   -1.63766112770081
O           0.36016415113019   -0.14580408756051   -1.56552591598118
O          -1.64748910790191    0.62589960096414   -2.66998522670269
H          -2.03794555079593    1.48607382662490   -2.78125461094689
O           0.33416449937500   -0.51958933608565    2.64413477644567
H           0.07875813254115    0.32066946884326    3.03097486544304
O           1.14421023701639    2.83779253396866    0.58527607228044
H           0.58518191184329    2.68324890632546   -0.20707316737174
H           1.77140883051330    3.51800463067477    0.33236481892399
O           1.83277478613861    0.23924476129723    0.65884737455152
H           1.40431386669471    0.03234086741300   -0.19102537847999
H           1.73741527664526    1.20985115832939    0.74579354414344
H           0.99900889675138   -0.29146515390440    1.92995891552815
O          -1.46755224310086   -1.37045585591965    1.08031674912119
H          -1.56098881063104   -0.50157356948101    0.52496387100721
H          -0.89931766064457   -2.03161624908094    0.41124997167557
H          -0.79884628055862   -1.09537438252490    1.81481611612948
N          -0.06282186094895   -2.65946048173577   -0.55699852226646
H          -0.48558560403470   -3.35473214034439   -1.15719207169984
H           0.79542982098266   -3.03207700183568   -0.17124116135672
H           0.16799599822669   -1.82745368228261   -1.11666001818382
