    23
        -45.38066308  Gyration_radius:  2.27667951391 Dipole_moment: 2.544
 S          -1.81196344714659   -0.60445297376157   -0.38177559774834
O          -0.77285756585007   -1.62847309301268   -0.40286846786509
O          -1.66486825701296    0.27295430058920    0.77564037877797
O          -1.91428663315708    0.11732563681412   -1.63018327575455
O          -3.19108486488648   -1.35927675901512   -0.19263048048297
H          -3.13750167471355   -1.74809065024740    0.67543892389329
O           2.06749896827785    0.09336122096018    1.39050411849660
H           2.78944322055234    0.04245385459360    2.01772971129239
O           1.66661948117086   -0.83561929704821   -1.18794320969551
H           0.82612804664115   -1.30042249236387   -0.99561457277546
H           2.01229253377264   -0.56934407705286   -0.31776401179746
O          -0.03035125128543   -1.31670997501047    2.11059666009258
H          -0.68599424839046   -0.60376238946110    2.00939983203484
H          -0.13672807049494   -1.79795431497966    1.27017490421775
H           1.33366379898128   -0.47211407844624    1.75666757743218
O           0.30691530223364    2.08558072240797    0.61331499621851
H          -0.50921117740374    1.56795800707045    0.77326338367068
H           1.02594524459300    1.54659051573565    0.98756533116569
H           0.41102684996103    1.84808404379986   -0.95914513204938
N           0.37819821357888    1.32938867440411   -1.88939446233968
H           0.59306504131236    1.91923270367610   -2.68492269472048
H          -0.59353007054760    0.91540196752294   -1.94734747015889
H           1.03758055984488    0.49788847282858   -1.79070643190213
