    23
        -45.38066390  Gyration_radius:  2.27662592801 Dipole_moment: 2.542
 S          -1.17011928435554   -0.64143975402571   -1.41897954901422
O          -0.84068267293007   -1.60727336159089   -0.37490506707581
O          -1.50888781773405    0.65743568111720   -0.84745602398161
O          -0.16010822025777   -0.55694441400712   -2.44978627614524
O          -2.47989374317132   -1.18091674615666   -2.12642658732445
H          -3.11049782707793   -1.28964613710873   -1.42062723518314
O           0.49196857206075    0.63951150283222    2.35915633225008
H           0.54142542665892    0.85183750148341    3.29164211186701
O           0.54964793594958    2.13555791639005    0.02964308281552
H          -0.28240799374654    1.77521771756665   -0.34125997991492
H           0.58849525369700    1.79455012685114    0.94065766558275
O           1.58095623355159   -1.33448176290851    0.74879543779427
H           1.33602886576966   -0.71934784303708    1.46227260772038
H           0.72984451368347   -1.63192068941135    0.36601709110778
H           2.03942137334949   -0.38986377700984   -0.45073542816831
O          -1.87812288579510   -0.22044223594765    1.61680589133917
H          -1.99821224146283    0.39781131539118    0.87416466808043
H          -1.56530876506434   -1.01942882852623    1.15496682978086
H          -0.43828973730704    0.32677259795858    2.18837920678765
N           1.96417362967996    0.33301268171969   -1.22984230865823
H           2.84021753069322    0.49376009756772   -1.71324574219563
H           1.56169989323489    1.21288688594333   -0.78241575469070
H           1.20865196058356   -0.02664846510418   -1.87682095276673
