    23
        -45.38066443  Gyration_radius:  2.27665697603 Dipole_moment: 2.540
 S           1.53847024857462   -0.94951917938318   -0.72527942993387
O           1.80409321358177    0.37958284444974   -0.18534886081917
O           0.67212411465116   -1.71667718606536    0.16471474726116
O           1.06108666099939   -0.91864154483146   -2.08947080885234
O           2.92699036475514   -1.70972568901587   -0.76001522740770
H           3.19872192780787   -1.76116678629488    0.15164540125879
O          -1.31120208266638    1.01913056625512    1.85982331666824
H          -1.70731223281129    1.36306002333979    2.66108703990700
O          -0.19113042882800    2.15915885520264   -0.40299260380869
H           0.65652117447178    1.67084278608730   -0.35191566225684
H          -0.64780513956123    1.96076630529242    0.43345149906929
O           1.00016388103873   -0.16199586471378    2.27220173504177
H          -0.44937195065103    0.59764829889556    2.12807076791361
H           0.78870391618511   -0.98621844293654    1.79730040510049
H           1.50245001958411    0.32719006686493    1.59655137888861
O          -1.92777626214610   -1.05350557626812    0.12998509241603
H          -1.71210070299162   -0.25553901652530   -1.23185073995603
H          -1.04884755112903   -1.48375893962764    0.17191544576620
H          -1.90586753460007   -0.36662811433581    0.81959323855308
N          -1.22022364769896    0.33540462663254   -1.96989520963116
H          -1.78930026315594    0.50679010662973   -2.79070417705202
H          -0.32849388896780   -0.18477225645614   -2.20054717388807
H          -0.90989383644757    1.22857409679194   -1.47832017423883
