    23
        -45.38066444  Gyration_radius:  2.27660086489 Dipole_moment: 2.544
 S          -0.44064903302619   -0.71389461678991   -1.75794609657524
O           0.38618335035587   -1.56561572161627   -0.90955443891172
O          -1.55031389180811   -0.13749669109695   -1.00478848023393
O           0.32627362477220    0.27585565817192   -2.48038906983330
O          -1.08786485267564   -1.65728896650753   -2.85271561819130
H          -1.63094471365371   -2.26504080865016   -2.35941832797353
O          -0.11265471991366    0.00640938592695    2.49044875833407
H          -0.24551782713043   -0.10556837555697    3.43227664320806
O           2.04291025669997   -0.29877678691172    0.77742116910722
H           1.43548561623091   -0.21547230466547    1.53346142805931
H           1.58776619054581   -0.89840941302725    0.15063105323549
O          -0.92298942844617    1.89333096729645    0.63304887354292
H          -0.71337771565087    1.37231789608278    1.42829369732372
H           0.47695715036676    2.06688709022716   -0.10696907897880
H          -1.32464797617568    1.25425069201727    0.00885920190011
O          -1.37353302625825   -1.79115339081495    1.04614698354289
H          -0.60809926271751   -2.06356021770797    0.50893695370751
H          -0.62763801442265   -0.71966386637118    2.04325895625399
H          -1.81609082278882   -1.16264387558282    0.44776462593604
N           1.36264839313239    1.79526623673894   -0.63388007505045
H           1.84709115662515    1.05424752006513   -0.04050507734388
H           1.95770916539050    2.58591584784890   -0.85226436297762
H           1.03129638054166    1.29010377092824   -1.50211771808333
