    23
        -45.38066457  Gyration_radius:  2.27661739764 Dipole_moment: 2.543
 S          -1.53097585288007   -0.74743624336771   -0.94429926027143
O          -1.71156401985003   -0.50961300775387    0.48399307010549
O          -0.87400452001456    0.38561724309599   -1.58868885900050
O          -0.88679650501351   -2.01014488723360   -1.22779154801788
O          -2.98078410192586   -0.83933242979337   -1.57440418967068
H          -3.36681254280953    0.01821885719625   -1.42207463619401
O           1.17267678800534    1.80345747582257    1.25982892745687
H           1.50143786317535    2.57435318156797    1.72341369189711
O           0.47798043359195   -0.77049612747734    2.01192359094893
H           0.80179429885707    0.14528097383333    1.94851328976191
H          -0.41816382927039   -0.75097706874713    1.61689615944473
O          -1.28762291584144    2.09400286671285    0.38257956993954
H          -1.63997762171046    1.26709436437359    0.75822249633979
H           0.24273709889617    2.01910789993988    0.97506633442603
H          -1.11098596413985    1.82854705344811   -0.53774144364918
O           1.76644337289709    0.60166576480815   -1.16322370465778
H           0.84711996881088    0.59621880937280   -1.50127395930183
H           1.73446184210596    1.13918194100321   -0.35216900070492
H           1.81299473884703   -0.90221506780515   -0.63983570516182
N           1.48595868715045   -1.80121939002022   -0.17013927708230
H           2.16849114825448   -2.54887741145862   -0.21612412015676
H           0.57809723957587   -2.05621229153178   -0.64932215783002
H           1.21749439328988   -1.53622252595267    0.82665073138539
