    23
        -45.38066462  Gyration_radius:  2.27661762701 Dipole_moment: 2.542
 S          -0.15186247016351    0.09322366707323   -1.93962375613015
O          -1.34095456739268   -0.35937637104085   -1.22537415529990
O           0.44477168009062    1.25487365608864   -1.28740503316505
O           0.79856001964821   -0.96886716703163   -2.18138028392210
O          -0.63907113932252    0.58319884661814   -3.36434737002901
H          -1.22503177177582    1.31227572209417   -3.18334879613499
O          -0.57867776872863    0.72540962014392    2.31404090336956
H          -0.88698691290666    1.10298208252791    3.13843820136257
O          -0.90607870606714   -1.71638015885872    1.04731395527276
H          -1.22350210086280   -1.34608084992630    0.19777824483775
H          -0.88306157808085   -0.96000109751945    1.65958184381503
O          -1.65882582859864    1.84412760101590    0.19523627395154
H          -1.94925102739258    1.01963527435683   -0.23416752517673
H          -1.04686753524926    1.21661282851451    1.58474303706165
H          -0.82375833629471    2.02282238849727   -0.27361254325904
O           1.83305378538104    0.75500254377698    0.95362434543059
H           1.46622158775533    1.08082904112353    0.10589182036801
H           1.10124018726669    0.83044244185603    1.59121850647066
H           1.88100426854795   -0.79450949825771    0.58663332009736
N           1.56461013433343   -1.73171914280589    0.18994035932747
H           0.61560213680656   -1.93628679313836    0.62959959914918
H           2.23951951393357   -2.47461866938207    0.32949765030022
H           1.36934641906878   -1.55359597572520   -0.83427860770303
