    23
        -45.38066433  Gyration_radius:  2.2767153063 Dipole_moment: 2.540
 S          -1.72047178882892    0.26760109138005   -0.87350611722480
O          -1.64697345292639   -0.84391294059317    0.07007464460705
O          -1.08579135169245    1.46349002071234   -0.32958569241928
O          -1.23648665288465   -0.07712722889104   -2.19135303468928
O          -3.25762224373228    0.60765057742564   -1.04216862516060
H          -3.56731124492222    0.77958110522577   -0.15776773620101
O           1.50776238036689   -0.02146311010644    1.98649623016907
H           1.96943679791905    0.01364420989190    2.82477608731080
O           1.59612792091965    1.48275875172996   -0.33718433521539
H           0.63599947064937    1.67459415326215   -0.36899712130494
H           1.74170637727453    1.06541151038989    0.53018953382270
O           0.73920859695486   -2.05507908961522    0.26887981507687
H           1.21023349684917   -1.36589317809157   -1.08889034683047
H           1.12129341664506   -1.49776072798992    0.96953182011517
H          -0.20528514978829   -1.79882765309450    0.22712606308476
O          -1.03287577717057    0.62553954630430    2.17525565283942
H          -1.38022006250749   -0.15293703369373    1.70324222432609
H           0.56410753029655    0.23818897184358    2.17162799165407
H          -1.03403679176518    1.29619619031304    1.46927016177742
N           1.28835867254762   -0.62636513541743   -1.85207531160401
H           1.89135839084922   -0.90316745893526   -2.61806758273710
H           1.60530384284305    0.26887662142624   -1.36825774710748
H           0.29617762208471   -0.44099921345460   -2.16861655427609
