    23
        -45.38066450  Gyration_radius:  2.27660100433 Dipole_moment: 2.543
 S          -1.82760004381148   -0.65576763409437    0.15396814114519
O          -1.16536455939988   -0.31134692684918    1.40835002999422
O          -1.59420073012504    0.36432453084062   -0.86297516933779
O          -1.51150962613369   -1.98985488877160   -0.30448341150911
O          -3.38236769130913   -0.64794847748329    0.45415055413317
H          -3.55772763426495    0.22005291746252    0.80552922098187
O           1.75412144175704    1.76132353126278    0.18619989374185
H           2.32017266940087    2.52475767067804    0.30432707502931
O           0.82840485690624    0.35722021250319   -2.01422029717388
H          -0.12047513727090    0.41811160509962   -1.77866556385767
H           1.28253535501309    0.94564656750583   -1.38558980419664
O           1.49209305542624   -0.68129910699685    1.46511181088893
H           1.40180111958286   -1.58810954097737    0.15771912901391
H           1.76274021744915    0.19353186965335    1.13485298230906
H           0.53135466739333   -0.60171151918587    1.63846837651802
O          -0.75628310931106    2.22789400500844    0.80882545842658
H          -0.86863658341356    1.46378948158282    1.40234276649646
H           0.83594270745362    2.04620965289972    0.44740680910891
H          -1.14259451269008    1.88860148057420   -0.01857296800019
N           1.04968646875927   -1.93997093451134   -0.78447165337743
H           1.09406435561094   -1.10771170249689   -1.44899385699169
H           0.01974332095174   -2.13688244665820   -0.64579001554375
H           1.55409942200694   -2.75086032703710   -1.12348951779738
