    23
        -45.38066439  Gyration_radius:  2.27661583227 Dipole_moment: 2.543
 S           0.46878684551095    1.39492924612300   -1.27635375134132
O           0.97191172820544    0.05851404296720   -1.57845474779995
O          -0.92838097778005    1.34999231918807   -0.85783968995107
O           1.31029523616450    2.12005390116846   -0.35127761649718
O           0.50795676605868    2.20383979020015   -2.63705423242574
H          -0.00402333693701    1.67980524456344   -3.24607703210340
O          -1.17455324832308   -2.09210211285167    0.67743247463094
H          -1.67478695319842   -2.89953642787388    0.80007059416243
O          -1.38842532266270    0.49541727311471    1.64309714019023
H          -1.46421882106908   -0.45625597262861    1.45314356991915
H          -1.38007757604800    0.92971097164202    0.76516623465236
O          -1.40060179133886   -1.09160999277309   -1.74230327738755
H          -1.33106196484635   -1.80180012498108   -0.26260917136505
H          -1.63397858259953   -0.18621344209961   -1.46844228838828
H          -0.44674459866276   -1.00114075107666   -1.91680310752643
O           1.52415028150049   -1.48731988500084    0.54387923280989
H           0.64569624392633   -1.89181184479358    0.65576984501776
H           1.48012878564022   -1.01680208317407   -0.31411899545513
H           1.49475986761127   -0.20865577057781    1.49358258645024
N           1.20532982544718    0.74847350399110    1.86230942779434
H           1.70873253111667    1.02564994961438    2.69700053831524
H           0.14940081842465    0.70780940967334    2.00091956897113
H           1.35970424386495    1.41905273558422    1.05896270733168
