    23
        -45.38066465  Gyration_radius:  2.27661052985 Dipole_moment: 2.542
 S           0.12700676381139   -1.34205641537086    1.40591789603751
O          -0.59614870718312   -1.74161695801142    0.20252099226552
O           1.36540426680739   -0.64724318011040    1.07039045999273
O          -0.69521727298278   -0.60801227442244    2.34131345834057
O           0.54455762860708   -2.68120035490135    2.14054207195135
H           1.04436716555174   -3.16842024705598    1.49213237621682
O           0.50640214773470    0.89851950866512   -2.26972839735954
H           0.77393890931218    1.11885698332272   -3.16255392810014
O           1.10597959318704    1.89215306559464    0.24582956038523
H           0.99969121124509    1.71991156453439   -0.70627428680724
H           1.37257543690984    1.03203697044904    0.63147086567905
O          -1.90166329793995    0.21767092620756   -1.08443043261845
H          -1.17908518712936    0.50633575893827   -1.66953115894613
H          -1.58090212920264   -0.61218708424505   -0.67475058344095
H          -1.77220727862388    1.15490714092716    0.19713500395526
O           1.43498661339073   -1.42079314668636   -1.45360305743306
H           0.90958785350522    0.01113567864397   -2.06392857629532
H           1.81534635234704   -1.10304737862577   -0.61517297223749
H           0.58162852039424   -1.78288028723287   -1.15411334033369
N          -1.35213586559907    1.57661682502819    1.08120016621479
H          -0.38283493837816    1.92846105322741    0.81204760460124
H          -1.18572503426766    0.75994811865110    1.73250331697965
H          -1.93555274150682    2.29090373247264    1.50108296095683
