    23
        -45.38066455  Gyration_radius:  2.27662545504 Dipole_moment: 2.544
 S           0.32301488430166   -1.56986629100170    1.10685359301449
O          -0.49188083792925   -0.51911765595857    1.70749961870001
O          -0.08419661127734   -1.83062319188149   -0.27041598206642
O           1.74193633380314   -1.32801190345313    1.24036043129547
O           0.02221917750969   -2.89549101665664    1.91905006998688
H          -0.90464505920202   -3.06302326668799    1.77598006233166
O          -1.46306726407423    1.53273727619802   -1.31420070951081
H          -2.13287110133049    2.02863612609143   -1.78605750565346
O           0.07078960989305    1.99076964864062    0.94704517201931
H          -0.17539914192083    1.16010554739283    1.40418342166923
H          -0.51994891017632    2.03884315215002    0.17493303979656
O          -2.41293584292874   -0.59755658046002   -0.10289939656801
H          -1.92684835978100    0.75638766432129   -0.89634938170583
H          -1.76596341059536   -1.22930658250957   -0.46539460067300
H          -2.03103723520755   -0.41093124658546    0.77337820964369
O           0.69869423437316   -0.01603043723677   -2.08559383273564
H          -0.06493773152868    0.58441910883633   -2.02161717116672
H           1.75514714484334    0.57460421669862   -1.04965467490623
H           0.44105222124791   -0.81052547593419   -1.57399204750224
N           2.17603934443732    0.85699581699601   -0.11212232405794
H           2.18209188036993   -0.02473170546286    0.47213254447868
H           1.46512449264142    1.50144593055533    0.35167132445739
H           3.09762217252436    1.27027085594872   -0.19478986084585
