    23
        -45.36629830  Gyration_radius:  2.36437684867 Dipole_moment: 2.452
 S          -0.70361800619383    0.01597366034114   -1.68841887987485
O          -1.12653983688031   -0.96824619714385   -0.69461843012738
O          -1.71061363729755    1.01612916525863   -1.94020679562635
O           0.61933694152541    0.53460984503654   -1.38982972245700
O          -0.53260223091636   -0.79050312461227   -3.05123806254019
H          -1.42680399604476   -0.79810249371997   -3.37542843081220
O          -0.01917366637729   -0.35306797623439    2.69294797343223
H          -0.96054977290877   -0.32112462975796    2.87654293095032
O          -2.30850206011605    2.05533066059013    0.41796493595024
H          -2.64509375418837    2.93300876937002    0.22719324994551
H          -2.18186453482203    1.62309629774855   -0.45461400236116
O           0.48030356408153   -2.04756321173178    0.87811177417447
H          -0.21387345267064   -1.69523953592837    0.19556824536453
H           1.43393728146899   -1.68031774002898    0.47363383195624
H           0.29709191521207   -1.46083626758774    1.70571572547852
O           0.27323195108178    1.63708860485477    1.04499511307727
H          -0.66057884698813    1.91922331060060    0.96079515052744
H           0.17032300052125    0.45915054637449    2.13743941339298
H           0.50623220100285    1.31310760050067    0.15648199482130
N           2.52068515101193   -1.00784787249341   -0.15708950040804
H           3.13899512906691   -1.56210912745329   -0.73403551861071
H           3.07400274337495   -0.44584538099022    0.47711591596677
H           1.97567390708551   -0.37591489297101   -0.75902695217253
