    23
        -45.38066432  Gyration_radius:  2.27673256093 Dipole_moment: 2.540
 S           0.60637818625720   -0.12134977097388    1.84726443102527
O           0.38997849632366   -1.39002642148254    1.15992491765959
O           1.32585913085574    0.82275738870202    0.99742590763467
O          -0.60749510650248    0.43169782007616    2.40442360076228
O           1.55676932510092   -0.42833780316192    3.07589813855346
H           2.36718481415185   -0.74095780554301    2.68456670530581
O           0.28295860381323   -0.30137345551370   -2.45956836650492
H           0.52277517089986   -0.47239476864857   -3.37081522873385
O          -1.54413540992213   -1.40993674550977   -0.69799284318483
H          -1.00656414756157   -1.13859284814028   -1.46290004816609
H          -0.89766024786256   -1.59333308185097    0.01481132245670
O          -0.11630404057900    1.98388190511342   -0.94479545022909
H           0.02779290487654    1.32033542618787   -1.64224792591201
H          -1.46401752519043    1.52315058536021   -0.22951970106270
H           0.50488504193507    1.73847349217078   -0.22829107877887
O           2.16532342019579   -0.96842045772356   -0.75051900652857
H           1.05891699605260   -0.58678710309700   -1.90403405358663
H           2.17791009253686   -0.12356989376669   -0.26520207700885
H           1.60645239406357   -1.51610909362973   -0.17096820594282
N          -2.12696564983999    0.91680664630450    0.34349229216665
H          -2.12273498677118   -0.04517508765260   -0.11536921267301
H          -3.05508054100851    1.31335290195138    0.43471457402348
H          -1.65222693183214    0.78590817082241    1.27970132872738
