    23
        -45.38066430  Gyration_radius:  2.27661731122 Dipole_moment: 2.542
 S           1.86935024507305    0.07111530150723    0.54275685975611
O           1.47146750709001   -1.10330895485936   -0.22599132733959
O           1.32357166898165    1.29308356825614   -0.04053989757002
O           1.58517370033417   -0.05650416479870    1.95434649754669
O           3.44389260732190    0.18228725415374    0.41694027140984
H           3.60443934749259    0.31831857129702   -0.51222120875798
O          -1.82568993070523    0.01766214933941   -1.69762726396338
H          -2.42041415210721    0.04347844507039   -2.44785523176264
O          -1.05669819819319   -1.93181788271432    0.11426569599119
H          -1.47545757504592   -1.39298574867436   -0.57984327212252
H          -0.09330607584933   -1.82680742219780   -0.02903501357963
O           0.70483009121032    0.22839365086089   -2.37494035716208
H          -0.90329903486237    0.10378575051789   -2.06396157982568
H           0.92562345123359    0.94530252153270   -1.75298237947373
H           1.02062750791566   -0.55383456475458   -1.88863565622539
O          -1.28532020820426    1.74074912672496    0.40161428002417
H          -0.31800967848276    1.77967408753473    0.25297888825469
H          -1.64073736125708    1.26763988617166   -0.37145772259513
H          -1.28078164956900    0.65199132934559    1.56478127272429
N          -1.01122024978005   -0.22982165311452    2.09914038202982
H           0.03752948529203   -0.17451974582440    2.22533232788394
H          -1.17529619959850   -1.04455248975760    1.43183204973671
H          -1.50027528829422   -0.32932901561870    2.98110239501201
