    23
        -45.37063473  Gyration_radius:  2.44953290816 Dipole_moment: 4.620
 S           1.09150410704492   -1.98585242464171   -0.46093075961040
O           1.37936185493391   -1.85078208205975   -1.87238879631388
O           1.89751771586327   -1.12753297450548    0.38348166487175
O          -0.33097833318844   -1.85816034988336   -0.13324588693076
O           1.46281704481664   -3.49204863465656   -0.08952518740316
H           2.17361727288315   -3.67500347010811   -0.69561981799187
O          -0.11295617637788    2.08034514143894   -0.93844645444873
H           0.06770314377241    2.75514681831234   -1.59443116998231
O          -2.28684560306289    1.85625058097661    0.66492264169211
H          -1.57006374542856    2.00519165682434    0.01217613649180
H          -2.41701930853607    2.68979923499490    1.11956030784097
O           1.36124722069190    1.27499286287060    1.28110025850112
H           0.10481009266351    0.46317374999407    1.73561111315212
H           1.79773316205442    0.45512935849885    0.96043623382417
H           1.02081290349687    1.71041883062025    0.48141394272669
O          -0.54424137937112   -0.12814563396457   -2.24557631723089
H          -0.23939673624191    1.23210458258876   -1.45431061831116
H           0.25537042888483   -0.69717717149518   -2.30062726011697
H          -1.14027665866199   -0.65291227558795   -1.69951155065940
N          -0.79313741101620   -0.12632123824965    1.74501106940623
H          -0.63592761967841   -0.89396115001022    1.01510714403582
H          -1.56395761428918    0.49853957586863    1.43136720965653
H          -0.97769437125768   -0.53319496781541    2.65442611680256
