    23
        -45.37611114  Gyration_radius:  2.37902370798 Dipole_moment: 2.490
 S          -1.60495342696698    0.87884724611292   -0.80835802468853
O          -1.75034899908912    0.38396304455358    0.55211281872555
O          -0.70935946305262    2.00733575114219   -0.91895131184349
O          -1.26380722263837   -0.19780622626216   -1.73505065516782
O          -3.03769692103021    1.40269087642940   -1.23838782443090
H          -2.80886180624291    1.91689741668716   -2.00489693135963
O           2.67013057279045   -0.69126789807163   -0.95294063328851
H           2.94953417761467   -0.42171782349822   -1.82918278860083
O           0.11612287335601    1.02178321296193    2.32735978536873
H          -0.61684835906364    0.89276726627156    1.68526211469336
H          -0.08803909155709    1.82636276979407    2.80584410131714
O           1.68698104362591    1.46422650758906    0.12139285253012
H           0.88633873415358    1.74957083002726   -0.36446340895224
H           1.37101956434225    1.30291127467011    1.02700309513130
H           2.38080546533533    0.14987595985563   -0.49677933139582
O          -0.60137338822864   -1.73280113502487    1.74225578294983
H          -1.26111223380280   -1.10195219143391    1.39412157124224
H           0.08201794063239   -2.00217105667921    0.28888980304084
H          -0.04463473540988   -1.19608983547607    2.31811831025962
N           0.35433995175875   -1.95648148739799   -0.72979575691108
H           0.29210470096794   -2.87185246354662   -1.16159613347902
H           1.32614519248349   -1.54932402035544   -0.82978099900182
H          -0.32850456001709   -1.27576802833623   -1.19217645613346
