    23
        -45.37611080  Gyration_radius:  2.37898374312 Dipole_moment: 2.497
 S           1.29311334990415    1.32137464398477   -0.76431142801019
O           1.93340663813096    1.17833977447263    0.52307710456964
O           1.14668981763715    0.06493922690941   -1.48323488852740
O           0.02411451461420    2.04023565851461   -0.68039540523869
O           2.25855383510237    2.21843110607437   -1.64487940740749
H           2.49787654613029    2.88624705626364   -1.01142381867259
O          -1.86718083362106   -0.00033366873254    2.24596392050071
H          -1.89555708540642    0.74633078653885    2.84611293240357
O           1.28507264953298   -2.19291858296053   -0.09619879775413
H           1.34968486209425   -1.35340274289053   -0.60336298659406
H           2.17551898286825   -2.54302065886265   -0.04669745658529
O           0.65658789111190   -0.60028172958451    2.04785954983920
H           0.79969122116000   -1.36010815643419    1.45774497844884
H           1.15119810399675    0.12971184639439    1.62243449182801
H          -0.91347408059731   -0.29961137062331    2.23974542651175
O          -1.00472402901396   -1.52035194891260   -1.75540932461339
H          -1.77977828288228   -0.38250351487803   -0.88616349851429
H          -0.23473461966962   -0.95051523156125   -1.94738756757776
H          -0.64392999744662   -2.22400434724043   -1.20374927229496
N          -2.02980912199537    0.49235903324405   -0.35116262388820
H          -1.22504883542862    1.17888709271594   -0.50696652132144
H          -2.07472645986043    0.28605123521982    0.68578195368086
H          -2.90254505640581    0.88414448232976   -0.68737737079680
