    23
        -45.36629835  Gyration_radius:  2.36445696545 Dipole_moment: 2.454
 S          -1.78836917414136   -0.38404200873511   -0.04097537828152
O          -0.92937029438278   -0.86185152863700    1.04015236777119
O          -2.66826394951431    0.67756701781195    0.37916602009872
O          -1.02229532710229   -0.11008896024656   -1.24372885009154
O          -2.72899209268900   -1.61168416162653   -0.42183534970748
H          -3.42122565075404   -1.52207054627455    0.22434847986987
O           2.39007157807152    0.56881006430997    1.15907735980892
H           2.10810968462595    0.87178923425519    2.02489601993826
O          -1.11123610181615    2.54513739902591    1.42152302626736
H          -1.72177366997512    1.83185800477135    1.13382222945874
H          -1.60464995691906    3.36256982222903    1.32995936267918
O           1.38574387139771   -1.69617046647579    0.63299838361332
H           0.40560205384631   -1.44149230993500    0.84744666586991
H           1.40378803002741   -1.70766590184036   -0.46657934464510
H           1.90108083979784   -0.84425954963372    0.89965524268666
O           0.70599491955123    1.78157654474927   -0.40813165060311
H           0.14634541190684    2.22431885372841    0.26232937343239
H           1.83636291393694    1.08652313699202    0.50374543801117
H           0.10890875511015    1.13890891599703   -0.83140394483611
N           1.22788267878340   -1.54384732863217   -1.87017533543031
H           0.33014212647015   -1.04132825693816   -1.85052867854341
H           1.12573355458584   -2.38156664985929   -2.42709055064813
H           1.92040979917929   -0.94299131505089   -2.29867088672904
