    23
        -45.37611075  Gyration_radius:  2.37882487538 Dipole_moment: 2.489
 S          -1.47969089180864    1.25818350481506   -0.47844991945267
O          -1.75231245542549    1.20308996929995    0.93945277069929
O          -0.12772271082825    1.69403313933971   -0.79349210852317
O          -1.81106525279691    0.00944672485173   -1.16022763925668
O          -2.44531761375014    2.36457926409255   -1.07499597142698
H          -3.25274382327429    2.15166456974483   -0.61981336790648
O           0.13810146280744   -2.69470417583971    1.11445127244394
H          -0.66331892803906   -3.13738849005523    1.39778524556715
O           1.71629460433094    1.51293635328322    1.10579265915753
H           1.78517087451860    2.31081228556693    1.63172049884223
H           0.99572387000325    1.67504005835286    0.45716274736297
O           2.02844905426313    0.25273238939790   -1.49404773033643
H           2.49054647817687    0.40972774387928   -0.66249521745988
H           1.02355543009976   -1.02591939112584   -1.41445878572355
H           1.30592423449505    0.91023457064180   -1.49216168690994
O           0.01784377081374   -0.33777223380807    2.20917488960833
H           0.79698763734864    0.20009877242571    1.98626301077726
H          -0.73590229007834    0.17129792261839    1.84703406920120
H           0.14871176673836   -1.82516549812744    1.60740847593542
N           0.17653746861911   -1.64827056488851   -1.31787542025557
H          -0.67263944034298   -0.99879195548015   -1.30276376774219
H           0.20190597923080   -2.15856125792061   -0.39094428477962
H           0.11496077486323   -2.29730372106798   -2.09451975980384
