    23
        -45.37611113  Gyration_radius:  2.37905855742 Dipole_moment: 2.491
 S          -0.91966315149923   -0.96684647257599    1.49056738109592
O          -1.69729142886226   -0.74457647845111    0.28113045633088
O           0.16894308477623   -1.90010669560048    1.31261330981303
O          -0.48236747226289    0.29416896034663    2.08455940587696
O          -1.91213103741700   -1.63180267130693    2.53213954600177
H          -1.29253516312392   -1.95631665510966    3.17636749141314
O           2.61205977530630    1.25073036641211   -0.33958959274929
H           3.26883491201599    1.18211131513878    0.35501124518052
O          -0.60674534600162   -1.37039643045927   -2.05540286133515
H          -1.03053148390957   -1.25216192942143   -1.17636045344168
H          -0.81136224902058   -2.26484772591809   -2.33121672158106
O          -1.60430364237965    1.29318803233307   -1.46744367775846
H          -1.22282114989868    0.76013084745054   -2.17459044755213
H          -1.91801710560599    0.63529472360431   -0.81694243794277
H          -0.47114916319933    1.91040076424102   -0.47414931069988
O           1.77054553918780   -1.18400888108812   -0.69761014985876
H           1.31214216233490   -1.50130559619878    0.10722670670987
H           1.09150378683679   -1.23018884741549   -1.39242825293738
H           2.35284045296872    0.30898837302483   -0.55300038790147
N           0.18895453860792    2.08240049033952    0.33128125904881
H          -0.09114260789435    1.39410119019099    1.10009015416725
H           0.11240991633137    3.03751954151284    0.66314396188943
H           1.18182682271317    1.85352379889562    0.04460337623540
