    23
        -45.37611113  Gyration_radius:  2.37904503641 Dipole_moment: 2.498
 S          -1.80288240705292   -0.57225154059860   -0.65157397789041
O          -1.32407973698644   -1.88464088188075   -0.28268219060039
O          -1.78028983936816    0.38370683298547    0.44500938406352
O          -1.12880189078136   -0.04416520510550   -1.83524352694863
O          -3.32788225004431   -0.74821208123569   -1.04642317984500
H          -3.27828120737438   -1.53792922919211   -1.57385945129767
O           2.75124088442317   -0.53110722311420   -0.81588678747579
H           2.93012257677270   -1.15951797113556   -1.51701292278170
O          -0.22338667365945   -0.13206304259174    2.53101901649037
H          -0.87447385543431   -0.01805088841813    1.80349894168856
H          -0.67786215635618   -0.61686640846716    3.22123012551027
O          -0.00728602324372    2.32550389844292    0.99610972295854
H          -0.83601258355576    1.84601167135127    0.80198287146070
H           0.34438556087127    1.87996063833133    1.77552551165148
H           0.72781498413153    1.85074602643218   -0.37703910996231
O           1.11826428295559   -1.77023277369885    0.78578460543340
H           0.87141116505799   -1.21608050909217    1.54603729441017
H           0.26862773656428   -1.94859853415854    0.33322372398547
H           2.20320662428076   -1.03075454155507   -0.14563289361901
N           0.97167249684032    1.37305247546953   -1.28611483823676
H           1.21049688675593    2.05363200886477   -1.99885808764016
H           0.10531921278832    0.81617693562793   -1.57369853492168
H           1.75867622241945    0.68168033273430   -1.13539571641624
