    23
        -45.36629885  Gyration_radius:  2.36437279966 Dipole_moment: 2.441
 S           0.93141325535205   -1.49773103049749    0.48504933204208
O           0.13920428583175   -2.66773647512037    0.77019153003916
O           0.83293219163198   -1.07960742273655   -0.91143119269420
O           0.72600583461955   -0.37899926596504    1.38772876299632
O           2.44902050522474   -1.93033375802006    0.70219285462796
H           2.42855327547348   -2.83295851531350    0.40290392931144
O          -1.56845068574568    1.54239000169202   -1.59472255726874
H          -1.97040806209445    0.87848917070910   -2.15915403332586
O          -2.31959178659810   -2.07980289435805   -0.01007599719048
H          -1.40216639710506   -2.36279375151137    0.19575888775950
H          -2.89021217524597   -2.64879860149587    0.51017530887311
O           0.95416998506895    1.31453173503724   -1.59931143916676
H           0.98166151159908    0.30299115818668   -1.38001103020135
H          -0.05567988039233    1.49385419431049   -1.70191258197743
H           1.23100310010517    1.78179086637199   -0.64393763794110
O          -1.76217026457480    0.43846430338736    0.75173721819258
H          -2.15015014291713   -0.42313284908094    0.49519239663810
H          -0.87964720839978    0.21024614966527    1.09489484976746
H          -1.70652416768786    1.21310079060468   -0.65838333432740
N           1.48451855397169    2.16483085584923    0.70526153806909
H           0.82224095020423    2.83886577898292    1.06758062297185
H           2.42218087936302    2.46501491287133    0.93555638354164
H           1.30209645228433    1.25732465641091    1.15471620926168
