    23
        -45.37611108  Gyration_radius:  2.37887258295 Dipole_moment: 2.488
 S           0.10199943820073   -1.70997228007850    1.03282856730141
O          -0.74445542764986   -0.66439603935054    1.58712459630291
O          -0.40921969385915   -2.27601176683235   -0.19440243870873
O           1.48800203599244   -1.26559708649417    0.90822323571346
O           0.10152582162132   -2.88305634983220    2.09869995254064
H           0.44760819994250   -3.59484501124200    1.57150436096446
O           1.28736336920254    1.03597641862932   -2.40491253429235
H           1.86980303740772    0.47289074900262   -2.91694500455853
O          -2.48828021862539    0.52130585066522   -0.02346687354421
H          -3.34563404229566    0.09363389738383   -0.01970742499053
H          -1.91731448349336   -0.00642185973550    0.57794526255260
O          -0.48259567484008    2.00636281079804    1.46511673043615
H          -0.57959754256084    1.09225522618557    1.79589925955879
H           0.89558203164929    1.69300100833035    0.65698954040710
H          -1.23651806919787    2.12367487950013    0.87562803081698
O          -0.85471860982449   -0.39152621164525   -2.02999755133429
H          -1.52325989986980    0.09384358834213   -1.51666879064505
H           0.42517389253162    0.53442574118670   -2.33857366589220
H          -0.65009556637304   -1.17358354773905   -1.47771636306258
N           1.72081310598539    1.21821446097468    0.20119752355718
H           1.61399575296037    1.23181717130986   -0.85172005457489
H           1.68875838765506    0.19625459955884    0.51379231430177
H           2.59106417305141    1.65175374067547    0.48916133271967
