    23
        -45.37611114  Gyration_radius:  2.37900359739 Dipole_moment: 2.490
 S           1.82365076397545    0.70217935445947   -0.42776302292420
O           0.75684276003065    1.05809630922833   -1.35088635688311
O           1.69328635731654    1.32217736698960    0.87082762148683
O           1.99398637902023   -0.74613813529487   -0.34055303352201
O           3.15930921794003    1.27261408317688   -1.06251525543878
H           3.74060824507001    1.22309850351762   -0.31155849831360
O          -1.10241036216841   -1.75787667573917    2.05180697900343
H          -0.54149534433900   -2.07550085126953    2.76098931689958
O          -1.50207436252517    2.02287501462279   -0.34703878461472
H          -1.50071932421226    2.97899094828449   -0.28530584375963
H          -0.62050184230447    1.77112946539512   -0.70158953011567
O          -1.43586733272630   -0.32414830854889   -2.05815287429724
H          -0.59605986181320    0.17389176878184   -2.09010653130724
H          -0.84602216703360   -1.48655139462077   -1.08216871795780
H          -2.04286555395481    0.26868351339172   -1.60014813768780
O          -0.68208986109366    0.80799000257704    1.97236038016572
H          -1.02267510499734   -0.76172434832009    2.07689018313332
H           0.24455754656726    0.99079278054203    1.71473705657829
H          -1.21116422608221    1.23742866056808    1.27831130627354
N          -0.24010949356022   -2.05832494283129   -0.43411868123808
H           0.71310888859460   -1.57431427263925   -0.41031047795156
H          -0.14799198643728   -3.00996597203405   -0.77194894278322
H          -0.63330334531710   -2.03540287024537    0.54824180524907
