    23
        -45.37611107  Gyration_radius:  2.37901940426 Dipole_moment: 2.497
 S          -0.24616365459074   -0.73354640429890   -1.84484974090345
O          -0.08608781318289    0.65122652489878   -2.22496687656780
O           0.87452768594867   -1.25936701503749   -1.08033387678879
O          -1.51773182219129   -0.98413478054188   -1.17049985550976
O          -0.28347853886784   -1.56513492184411   -3.19355175969150
H          -0.85683188155213   -1.01654680703719   -3.71752529435317
O          -1.47231487173126    1.87086191574766    1.68887970059067
H          -2.23565704770923    2.33281038546634    1.33909439046493
O           2.49825016176006    0.46616150177197    0.11404208559923
H           3.24088184446641    0.71739722289169   -0.43671819050996
H           1.95280132280677   -0.14739154827368   -0.42661764945276
O           1.12053945201921   -1.63945549171891    1.56780137569116
H          -0.41484911726042   -1.10244765763675    1.64622880138147
H           1.09496307318984   -1.78585107842816    0.60222901850500
H           1.76524119953645   -0.93142129744785    1.68057599803076
O           0.38361422557122    2.20063766634676   -0.10387540865942
H          -0.72617041926113    2.07355975860904    1.05529687624842
H           1.21515232769888    1.76792962824200    0.15573054988234
H           0.13231735483394    1.75514939703845   -0.93865272680495
N          -1.38506321380479   -0.76114372471555    1.40919536919791
H          -1.49715103762649   -0.88679264987375    0.35327394591272
H          -1.46915269087280    0.27317255549543    1.61714437928091
H          -2.08763654922951   -1.29567315964945    1.90809889847499
