    23
        -45.37611102  Gyration_radius:  2.37881996387 Dipole_moment: 2.473
 S          -0.27383445449269    1.90619461051656    0.53924750201570
O           0.88655212783025    1.64984473018368    1.36125193396287
O          -0.04946597007214    1.65641013243900   -0.87648542533956
O          -1.46477176865074    1.21176922877914    1.02227094211453
O          -0.57600150793206    3.45684427364990    0.66654575203795
H          -0.45776514534584    3.57934225766680    1.60219366058964
O          -0.06442933053340   -2.56177574219689    1.39132463330747
H          -0.18187803836719   -2.58636234702467    2.34217488803855
O           1.99520772354721    0.11451522713544   -1.57072545835514
H           1.31571784795845    0.76991331010439   -1.29685657195651
H           2.79608902927288    0.61419865318223   -1.73471425993447
O           1.82848700574803   -0.82068680170659    1.00341314283752
H           1.52860962991245    0.06826985682002    1.28337739274498
H           0.72593448000132   -1.96912922579622    1.23742610519184
H           2.03151917176385   -0.71634681073678    0.05795026482672
O          -0.73498674511130   -0.46391633802923   -2.37695562339959
H           0.17339432889542   -0.76812404632180   -2.48652151675133
H          -1.41926542168673   -1.02969369261832   -1.01229274753171
H          -0.64101988397601    0.44687807585278   -2.03634418553522
N          -1.78673775349159   -1.13677326026773   -0.02857787354559
H          -1.16473209288289   -1.79089138084956    0.52420339737603
H          -2.74777029218342   -1.46018434976969   -0.03547665914315
H          -1.71885293022448   -0.17029636099458    0.42357070637163
