    23
        -45.37611118  Gyration_radius:  2.37898687447 Dipole_moment: 2.491
 S           0.35296112912740   -0.65574287062168    1.85663357124908
O           0.41095893244240    0.75731356014055    2.15268694914024
O          -0.90139663545778   -1.07045174268957    1.24716408329577
O           1.50194355409401   -1.11076092813874    1.07748618973664
O           0.43116909770846   -1.40710190509467    3.25010724995170
H           1.12244678489788   -0.91038369401576    3.67394929995101
O           1.50081183792513    1.56338611376997   -1.95268482818877
H           2.34951065633299    1.93945548444897   -1.71448064391345
O          -2.41682113929615    0.78358482911489    0.10383104152856
H          -1.89642390388627    0.13560708630014    0.62873768123150
H          -3.06093832915587    1.15789085975663    0.70630474970185
O          -1.48099731942937   -1.56347324890066   -1.32961249040904
H          -1.36918168838507   -1.65812603600432   -0.36376678277075
H          -2.03959889609973   -0.78345003392136   -1.42570512901908
H           0.09184282219337   -1.23847386732061   -1.59844647598852
O          -0.09217854284385    2.23725817076657   -0.00981989872617
H           0.19120347815960    1.80872563929581    0.82358910638168
H           0.85959095772015    1.89840513164396   -1.26278713776836
H          -0.99429123636014    1.90365394671972   -0.15428574953339
N           1.11704295819987   -1.01479992513236   -1.48465565177979
H           1.68898580228589   -1.66328366937705   -2.01435859680995
H           1.32729498232824   -1.09581450582719   -0.43935952277205
H           1.30606471748991   -0.01341836492071   -1.77052699451882
