    23
        -45.37611114  Gyration_radius:  2.37901852158 Dipole_moment: 2.494
 S          -0.84517188338818   -1.81299785241049   -0.02358022992561
O           0.57179706293260   -1.75175523049740   -0.34818086256118
O          -1.13456690941172   -1.49928732480456    1.35687424726385
O          -1.64198137885735   -1.01892852677565   -0.95565686585024
O          -1.27779353162925   -3.32257131027275   -0.23832223454258
H          -2.11272940948892   -3.32799909288744    0.21679166192583
O          -0.96823799062068    2.72032873270202    0.42294759117863
H          -1.88220010866296    2.86977696808633    0.66955256003078
O           2.17293548852941   -0.38459400409229    1.26693212939381
H           1.58342565663271   -0.97569695224759    0.74799555965438
H           2.55339629574103   -0.92841013449082    1.95793369422631
O           1.97035198236821    0.18613653275637   -1.57525224736989
H           0.53546909166962    0.94444593254238   -1.70856940690903
H           2.45028371454848    0.44148081336018   -0.77895055552665
H           1.57327519772622   -0.67679812356924   -1.34700344051597
O          -0.13435089763216    0.87403077817247    2.05461778394412
H          -0.61014416847976    2.08404398722424    1.10576759562277
H          -0.61880822276829    0.03823060604057    1.89585666676874
H           0.79666071951338    0.64400341373185    1.89230138614253
N          -0.49129999255465    1.18757956904826   -1.68335236058790
H          -0.80110153112109    1.53985546149237   -2.58232828453412
H          -0.68219613445557    1.88495584233603   -0.91043738649243
H          -1.00701308058932    0.28416987454586   -1.43593701132442
