    23
        -45.37611116  Gyration_radius:  2.37886908682 Dipole_moment: 2.484
 S          -0.79513161318440    1.82209752008087   -0.21983638731729
O          -0.48027490729560    1.93368880149867    1.18593304371058
O           0.35807982693744    1.51020538950474   -1.05038847736566
O          -1.90082985457424    0.90166636619806   -0.47323499707781
O          -1.29037351695552    3.25547354315827   -0.68079294539446
H          -1.85625991313409    3.48467680115312    0.04832808101035
O          -0.67878090622510   -2.36884379124540    1.56063082294826
H          -1.40621763098635   -2.33870349463356    2.18387270437345
O           2.49794620141458    0.45983428096809    0.11504093275884
H           1.74051186411319    0.95087085092247   -0.27407879130521
H           3.12801365206803    1.12368506532218    0.39843271787515
O           1.13709086246053   -0.83660321396976   -2.10060085381647
H           1.90664830903243   -0.91848615257454   -1.52549949985755
H          -0.21599834941026   -1.43028732692920   -1.41671515246353
H           0.86338320508861    0.09578822006260   -2.00008617131222
O           0.74108320831754   -0.25651580431871    2.09718590318549
H          -0.07521284839212   -1.61580091686183    1.82163367457642
H           1.51765126313689   -0.18973913945880    1.51537485362046
H           0.22698567877467    0.55411874136188    1.90453467023288
N          -1.13656124982037   -1.53697721172927   -0.91144207863818
H          -0.98139903766042   -1.96917253438560    0.04221794788419
H          -1.78935941659074   -2.08373533080978   -1.46202145212690
H          -1.51099482711720   -0.54724065333057   -0.75848852552660
