    23
        -45.37023021  Gyration_radius:  2.33345927847 Dipole_moment: 4.338
 S           0.31422554690155    1.41471441085950   -0.82609120992806
O           1.29961456437330    1.46202706947435   -1.89316996997172
O          -0.79464658258142    0.53959011183225   -1.18538280079455
O           0.87332865049555    1.10210155835482    0.47137940435689
O          -0.28566721886487    2.88387393073631   -0.68320673986278
H          -0.39166083219122    3.19712385491040   -1.57732264528091
O          -0.45413585309749   -2.45718590550070    1.44290402433343
H          -0.50233072633138   -2.59190649301036    2.39039625403623
O          -1.11246386483724    1.75056287335806    2.14696207959665
H          -1.41178724731148    2.59531288916599    1.80639515994610
H          -0.29666700242545    1.54449141871843    1.65319620531361
O           1.76039969824441   -1.42486562797998    0.48006782665851
H           1.45778476246609   -1.40034088292083   -0.94450494555492
H           1.60319038441876   -0.47920290501094    0.67332294166144
H           0.99068032190130   -1.90025113272396    0.89309676630158
O          -2.12087925165167   -0.48380457616679    0.92688831016996
H          -1.93871251625696    0.22938410157603    1.56552461529636
H          -1.77255588855456   -0.14184565432523    0.08409297935301
H          -1.13697588512077   -1.76441447103034    1.23454189046924
N           1.08611885617632   -1.13348651651452   -1.96140218491265
H           1.44233463385353   -0.16158930662712   -2.15224190475903
H           0.07138820860057   -0.97211039038053   -1.86277076391983
H           1.31941725187060   -1.80817833673718   -2.68267527248260
