    23
        -45.37023091  Gyration_radius:  2.33351272798 Dipole_moment: 4.351
 S          -0.24393258887275   -0.97123318284403   -1.33272146907420
O           1.07836606935396   -0.48362248324409   -0.96253219535840
O          -0.31301936695466   -2.41783215567036   -1.20862646816845
O          -1.30837763000502   -0.27474371744612   -0.64301735433374
O          -0.44776443949447   -0.62921698976418   -2.87569906082855
H           0.04075566539535   -1.29964674116003   -3.34546855086690
O           0.35684234458252    1.63953327791318    2.34678842893382
H          -0.13353788957273    2.42065503316153    2.60686043032725
O          -1.15784121551354    2.20021591147071   -1.65333711282821
H          -1.05317993139065    2.04147064176560   -2.59304042604613
H          -1.35894792026040    1.32929487574528   -1.26223425511991
O           1.11797573274031    2.08177864678165   -0.13552162965348
H           1.25458526787691    1.17619016254207   -0.46692871713690
H           0.33962948129698    2.39985527051482   -0.62815753744372
H           0.71010591477027    1.83395766948527    1.43721001341927
O          -1.00638044069384   -0.57796633017527    2.00016179948169
H          -1.36078474221347   -0.41912213591749    1.10261831284465
H           0.05727106899860   -1.50656244054068    1.64443975423098
H          -0.53625093935887    0.26483308207364    2.24073955707069
N           0.83540693833835   -2.09776197655545    1.10697513991740
H           0.34115793435169   -2.55270460374040    0.29593148340407
H           1.34817280650703   -2.74672319414405    1.69499450758126
H           1.43974785009939   -1.41064861017441    0.63056534964940
