    23
        -45.37023092  Gyration_radius:  2.33330194655 Dipole_moment: 4.353
 S          -0.68203113990100   -1.11267759580605   -1.03643524482827
O          -0.63551284211500    0.30972454127542   -1.35090822532923
O           0.13215015531609   -1.87355819445801   -1.96926079054284
O          -0.38694788908556   -1.38594162396864    0.35360987276292
O          -2.18978069503570   -1.58297902370824   -1.24721952289642
H          -2.28876469819676   -1.68601356370792   -2.18977215641624
O           1.23852419194161    1.86243129224461    1.82361869476824
H           1.09783516589229    1.95307170880587    2.76720627537701
O          -2.48365564062686   -0.31161201376611    1.62623602499403
H          -1.71038919072848   -0.79697889832129    1.28242635514938
H          -3.22654930223950   -0.60407843073833    1.09539807578059
O           2.05975112823506   -0.47240447317621    0.94529861807461
H           2.16883683133618   -0.21126909032395   -0.48350626307388
H           1.84481365250250    0.41092246579232    1.34852715941457
H           1.20954763103800   -0.95558538492680    0.93530818547427
O          -1.16440797726623    1.91999114217242    0.74595461598858
H          -1.01632597667264    1.46006809469785   -0.09961651027831
H          -1.72808800245124    1.30784557667236    1.25324682230783
H           0.34032958537206    1.95913846105490    1.40698798026950
N           1.96242715775419   -0.06306403135449   -1.56925825524486
H           1.18700312243255    0.61616360597857   -1.62352023843715
H           1.49768118045980   -0.94852768145986   -1.89742551049621
H           2.77355354206369    0.20533311708940   -2.11689597285253
