    23
        -45.37023125  Gyration_radius:  2.3334248052 Dipole_moment: 4.355
 S           1.45566643024812   -0.44426726991874    0.67930867182973
O           2.33889996091066    0.54058710156539    1.28093729621774
O           0.20054439228631   -0.53105748030725    1.41497113338171
O           1.25640972519953   -0.25883917713046   -0.74193668762964
O           2.17448679919003   -1.85917518995602    0.82341184012270
H           2.57625571776386   -1.84648087712033    1.68784070577273
O          -2.47836024130054    0.83169041233343   -1.22525746919676
H          -2.82987970977107    0.59020659584041   -2.08334846952303
O           0.15614567898550   -2.58276337317353   -1.49002008645583
H           0.69348062764695   -3.22968180094542   -1.02949349743214
H           0.60882804478582   -1.72829144571099   -1.36090150441845
O          -0.12503735034484    1.99542987397893   -1.16644076560275
H          -1.04985595947264    1.64232224037398   -1.26221038763601
H           0.04075194589687    2.21473418141897    0.26355869824663
H           0.45240366799318    1.21123812570397   -1.25606328340349
O          -1.87284073216061   -1.44426633285733   -0.04592433928048
H          -1.36834414167271   -1.98220986493477   -0.68288325779016
H          -1.20618836374117   -1.16198188255455    0.60558751281753
H          -2.31880057409951   -0.02668541904170   -0.74822823994590
N           0.25413932214944    2.10184347957099    1.35239640392822
H           0.05167653629695    2.92770614839263    1.90631866647530
H           1.25288020984541    1.77632223356304    1.41774968178091
H          -0.26326199657221    1.26361973078515    1.66062737760998
