    23
        -45.37023130  Gyration_radius:  2.33348332748 Dipole_moment: 4.363
 S           1.30550745172458   -0.17392770992049   -1.02000985090771
O           1.85610131945271    0.96231411858225   -1.74013895174549
O           1.46417701597229   -0.00045568025981    0.41805066234656
O          -0.05349308736252   -0.50010015537630   -1.39546537495932
O           2.17337489469165   -1.44545382351915   -1.43149098851147
H           3.07068341106787   -1.12756506700959   -1.48216701228978
O          -2.30634285144618    0.34075113192729    1.70176656917654
H          -3.10504957512772   -0.18771722311389    1.73382546573464
O          -0.38864919038887   -2.94093110994810   -0.34580988235120
H           0.42795269315690   -3.38598746093299   -0.57899917632522
H          -0.37148662760969   -2.09425115563764   -0.83013011500489
O          -0.31851419815354   -1.37584464450245    1.90004222518746
H          -1.55633493580694   -0.29540261679153    1.85215498055772
H          -0.49220675611992   -2.10096149891069    1.27263481456119
H           0.41454223049971   -0.88050618173745    1.49277352048024
O          -1.69274672190541    1.45874365371270   -0.59370206073756
H          -0.47043104511203    2.16738514594765   -0.24251334403809
H          -1.28669435587574    0.69465757370176   -1.04959329395926
H          -2.02917934729647    1.09155383910915    0.26725897616986
N           0.58575402689147    2.44567970193577   -0.01639283689788
H           1.14488715763550    2.16118278967254   -0.86201991632137
H           0.91411895365701    1.77229128041068    0.69300885530666
H           0.71402953799073    3.41454509267787    0.25691673478901
