    23
        -45.37023126  Gyration_radius:  2.33332774936 Dipole_moment: 4.359
 S           1.20899399149466    1.04603918861551   -0.46827560695738
O           1.55996647189261    1.21613599394246   -1.86831096105358
O          -0.15288919146194    1.50062140223703   -0.21766336238925
O           1.45279640858329   -0.28795508907741    0.03671651527432
O           2.17539818726051    1.99708926511037    0.36900965915237
H           2.25401025882836    2.79188283715958   -0.15149092075265
O          -2.05369128952740   -1.87861981681331    0.76561466866180
H          -2.02251671169743   -2.54647315220683    1.45210611549537
O           1.29592223414974    0.05063696144224    2.68830722704478
H           1.44561779353708   -0.19001783316414    1.75483571734799
H           1.79558394156675    0.85684240340340    2.82850625231307
O          -1.31684720557074    0.36500469659102    1.93290808965962
H          -1.00077026991309    0.89056152994026    1.17639072372492
H          -1.84933300749318   -1.01687516986960    1.21870910911525
H          -0.50938286095249    0.17836864929032    2.44563512080156
O          -0.23751219961544   -2.00868414699672   -1.12677802626543
H          -0.61759736766117   -0.87475282680350   -1.95804545809243
H           0.51761220386821   -1.59569674985007   -0.66251155701048
H          -0.95432573776643   -2.07092717602206   -0.44015293195538
N          -0.75588032702250    0.14303959343363   -2.39221964284417
H          -1.33557282140112    0.16788382140078   -3.22481645565105
H           0.21255691659518    0.53028813393927   -2.53278086128329
H          -1.11213940766023    0.73560749432448   -1.62569342435728
