    23
        -45.37023119  Gyration_radius:  2.33330695459 Dipole_moment: 4.355
 S          -0.22202979729311    0.16420788485218   -1.64315477613942
O           0.90199479721512    0.13233795836577   -2.56366188421551
O          -0.37266955147460   -1.11780021474914   -0.96638071210304
O          -0.19090543335720    1.27989070712155   -0.72211294127372
O          -1.53342408329955    0.37948101944399   -2.52235138420824
H          -1.39745107376800   -0.14835629573761   -3.30452209106787
O           0.44569408679278   -0.21834609923638    2.84308109241516
H           0.08962237419501    0.32754975659314    3.54555611350906
O          -2.67742161389095    1.29203100828008    0.27180842388598
H          -1.77141217575038    1.43687123252350   -0.05972994185041
H          -3.21847689292676    1.16314099853356   -0.50916337204652
O          -1.63455466636915   -0.96878358327494    1.41157631238654
H          -2.17202924373461   -0.17539425148544    1.23467536960529
H          -1.22350595582105   -1.17274277248003    0.55256391299925
H          -0.34284896148197   -0.56463302641793    2.34519577811949
O           1.85522953045312    0.97981636938276    0.97901692720524
H           1.13223561323790    1.33745910381704    0.42607442226569
H           1.39805672303758    0.57342400317797    1.76316526789985
H           2.22216861864035   -0.15110313509296    0.13781437300993
N           2.23306032845622   -0.97336869017033   -0.61539904172689
H           3.07885040355568   -1.53414867319762   -0.61105934678955
H           2.02520088468257   -0.51852235372472   -1.54125689553454
H           1.37461609890454   -1.52301096653030   -0.45173560636758
