    23
        -45.37023123  Gyration_radius:  2.33351609126 Dipole_moment: 4.357
 S          -0.96140120331597    0.63717263517082   -1.20306441534472
O          -0.78898724404595    0.24687017189933   -2.59231348729777
O          -1.38449590636733   -0.49968988861104   -0.39512114569784
O           0.18294377482548    1.32312206289111   -0.64271239402159
O          -2.14958424446302    1.69840445803210   -1.16591613327959
H          -2.78582223925253    1.38084167835717   -1.80084721912751
O           1.73961789113601   -1.07923050081356    2.03646842931046
H           2.20790022900414   -0.61102918262590    2.72907743796223
O          -0.81081472940317    2.38107278683564    1.60783458076095
H          -1.65400413220693    2.73595813879127    1.32080809316124
H          -0.34999253257050    2.11134809315332    0.79138117413716
O           2.23923250436102   -0.38094477156760   -0.44525989918270
H           1.67749435587532    0.41682947015133   -0.51155222838073
H           2.16718358517538   -0.66421393814900    0.50536532978623
H           1.37883510381540   -1.30391281173556   -1.17261064832610
O          -0.76584355188944   -0.28733106364923    2.22063823743938
H          -0.76408117450263    0.68509275168680    2.28454469831602
H          -1.09960386926420   -0.46472295008665    1.32307534908219
H           0.78062385368635   -0.84047452857809    2.15074452614085
N           0.51496997524671   -1.80939648645367   -1.66433725449161
H           0.12113246562342   -1.10973909775886   -2.34456101061963
H          -0.23180112198703   -1.85707173415046   -0.95309801731110
H           0.73649821062726   -2.70895529276797   -2.07854399293241
