    23
        -45.37023110  Gyration_radius:  2.33318606078 Dipole_moment: 4.373
 S          -0.53587061334357   -1.45262471533698    0.61140963804501
O          -1.16190483294696   -0.81940703802572   -0.54215882224311
O           0.09100471749814   -2.70829150464952    0.23393381755591
O           0.34203873669050   -0.55490531562810    1.33090009817917
O          -1.70457724567146   -1.81029951818597    1.63406849494272
H          -2.07981538710841   -2.62337417229175    1.30713835144065
O           1.01131649115068    2.49909252670520   -1.03227788015720
H           1.21368525763296    3.30318871505353   -0.55193096214412
O          -1.36573702353558    1.24021757486411    2.34716995171922
H          -0.65444935225277    0.62160362153330    2.09609050091876
H          -2.08039647846107    0.69003222979173    2.67261789300696
O           2.27184204340793    0.31182727047488   -0.30949412736578
H           1.73782270124461    0.06100892572922    0.47057826641834
H           1.72634258899388   -0.65155453581360   -1.25492839541212
H           1.90197313019395    1.18854275414392   -0.59904169502953
O          -1.44069000685987    1.85292612165220   -0.32025879342950
H           0.06035171008313    2.29331131725828   -0.82404218320794
H          -1.45698512353812    0.89684773650643   -0.50511855221671
H          -1.48970084005799    1.90682631517135    0.65158866358701
N           1.08715412265570   -1.39610304089274   -1.78526064732542
H           0.15192050202504   -0.96632044227909   -1.86329141711212
H           0.91287765123983   -2.17014002037887   -1.09391552629507
H           1.46179727085626   -1.71240481545069   -2.67377668389790
