    23
        -45.37023133  Gyration_radius:  2.33332729074 Dipole_moment: 4.364
 S          -1.24379258217754   -0.57212844521814    0.94770858643181
O          -1.49895027803010   -1.99689406985676    1.07941522001705
O           0.05764936202176   -0.22644477642334    1.50493719113282
O          -1.42594898758579   -0.06816519099403   -0.39649459499541
O          -2.33875342583765    0.17677725314672    1.83068542323457
H          -2.43393052728764   -0.35772342908893    2.61428778866688
O           2.12473187241535    0.94391153709571   -1.71090185530930
H           2.09221659916389    1.63494637717188   -2.37396922555695
O          -1.49912318932554    2.58277963377172   -0.02473899337202
H          -1.55815600981904    1.64407710630665   -0.28365898112693
H          -2.06778262832688    2.67325631808310    0.74184597670211
O           0.47158804718729   -1.07699111118192   -1.99349879187867
H           1.13707431156384   -0.33791626964363   -1.99561646074719
H           0.82795194176815   -1.89418122371767   -0.84212977013053
H          -0.34510345037328   -0.67645787480304   -1.63428277665862
O           1.13377294380727    2.02228155115003    0.47855706968624
H           1.82182767076786    1.36894818982818   -0.86393111704625
H           0.30571377287601    2.47518514974396    0.23602689998451
H           0.83805604589489    1.23644730859596    0.97205923202684
N           0.92289452955448   -2.33208270491848    0.17919698791644
H           1.17904686707507   -1.55104401687095    0.80321926925224
H           1.55779808472613   -3.12149596633791    0.23889868364563
H          -0.05878099004400   -2.54708532585775    0.49238420807175
