    23
        -45.37023119  Gyration_radius:  2.33341886789 Dipole_moment: 4.355
 S           1.00542366717044   -1.03113464807501    0.83855330615609
O           0.49415147161373   -2.23794679969038    1.46666152992586
O           0.85905754954528   -1.10068644226565   -0.60976385208392
O           0.46549217350433    0.19054250198050    1.39534747665781
O           2.56866405071194   -0.97798463662579    1.14285474709890
H           2.86871315544671   -1.87895540297181    1.05923840189085
O          -1.79537347342938    1.78778517927558   -1.38131505366453
H          -1.86536300213146    2.74023410699565   -1.30257661388762
O           2.11508065213447    2.06405786899816    0.42656235234329
H           2.98051692406302    1.67166389602549    0.55391876553208
H           1.49146032079400    1.47798918718231    0.89493855728300
O           0.75530621755547    1.30357031487707   -1.82525780670596
H          -0.84757193713678    1.60652308558765   -1.62363751223721
H           1.26925147560799    1.81251542002039   -1.17215770079354
H           0.83878029698502    0.38078610872936   -1.52521290119784
O          -2.13930058748910    0.36720525043756    0.80032652227120
H          -2.11620754609165    0.95163945853116   -0.00411034149908
H          -1.98282301334549   -0.98415229956860    0.28100883467798
H          -1.25486698169049    0.46552189746787    1.20597727955031
N          -1.57742768008036   -1.95563576759223   -0.08739623095277
H          -0.95311787703591   -2.31608839027319    0.67971604796860
H          -0.89455258120363   -1.72022429866837   -0.82449193664453
H          -2.28529326503207   -2.61722560071446   -0.38918390123521
