    23
        -45.37022996  Gyration_radius:  2.33337189135 Dipole_moment: 4.345
 S          -0.90007157203303   -0.28767150078838   -1.37323421104033
O          -0.73770412750218    0.52737467871415   -2.56565455916256
O           0.32263881741722   -1.02515939057827   -1.08175913281317
O          -1.39605134582830    0.44541226811767   -0.22852214799423
O          -2.02406390636081   -1.36865552484918   -1.69965372487843
H          -1.84358058283385   -1.65420239784498   -2.59115449452240
O           1.53142618151808    0.58461721953594    2.37440519477919
H           1.21903947067411    0.66347579013407    3.27685041783385
O          -2.13025380996031   -1.50276463095231    1.45595841170257
H          -1.96848180379944   -0.70908591102470    0.91220226035289
H          -2.59893135137896   -2.11364600929345    0.88459542848193
O           0.46463501783704    2.18828366722211    0.58920939748790
H           0.89816773931761    1.67922044193973    1.32544871996800
H           1.18504563466915    1.78964402613326   -0.61201667359332
H          -0.37221856338234    1.71284005965031    0.41561101629132
O           0.59876289977221   -1.72120896482398    1.50754986586226
H           0.59680000980845   -1.58678653906878    0.54291173812182
H           1.24568195730701   -0.31790160057584    2.06858973685606
H          -0.34596054255016   -1.76210573464912    1.74327627845050
N           1.53563365305734    1.27030553825976   -1.53453374900142
H           1.65838876386189    0.27885102303326   -1.27679965836866
H           2.36054220638949    1.68204019098873   -1.95863917322142
H           0.70055526406536    1.22712329072751   -2.17464093161969
