    23
        -45.37023108  Gyration_radius:  2.33334138088 Dipole_moment: 4.356
 S          -0.76909914744918    0.11642328113511   -1.47323324100194
O          -0.50834321041753    1.22570973825775   -2.37535707847463
O           0.42918450899322   -0.69226276549216   -1.28853754300358
O          -1.37256293758727    0.51326158843895   -0.21931576722221
O          -1.84945279441198   -0.81427186132163   -2.18441621606349
H          -1.59926620257381   -0.82802931708744   -3.10421565727386
O           1.30433875891822   -0.11744469266661    2.57248539170539
H           0.91180740696182   -0.28588235976695    3.43027420106256
O          -2.23791910245696   -1.81520455836631    0.78070525627990
H          -2.63982552487776   -2.23683712298470    0.01914680270798
H          -2.03541618448700   -0.90386882490938    0.49767660366789
O           0.47667466549171   -2.07997250598173    1.02254447063401
H           0.56155094867165   -1.68534883751740    0.13624547731179
H           1.05590715693926   -0.89592876054798    2.00506376283492
H          -0.48510613436427   -2.17045035679937    1.15073699333036
O           0.38997074595061    1.93376181112823    1.21138654742256
H          -0.42357486689779    1.53844746232263    0.83960868743423
H           0.75955109907753    1.23430066904579    1.81418524209335
H           1.21921258253472    1.86950569558258    0.01586131474728
N           1.65571739918456    1.61830186239411   -0.97909882899854
H           2.51449243935121    2.11334335811585   -1.19660810186173
H           0.88417644350518    1.77104423047030   -1.67872448352256
H           1.75798193996349    0.59140228658234   -0.99641384382320
