    23
        -45.37023129  Gyration_radius:  2.33348990862 Dipole_moment: 4.355
 S          -0.01113395754357   -0.64394745380866   -1.53706586229857
O           0.37852754618820    0.15021964982629   -2.69022462655601
O           1.11511742129394   -0.82568556295094   -0.63022242669399
O          -1.19494814077961   -0.15433360495368   -0.86403804052846
O          -0.40347223227153   -2.08889161301721   -2.08239095980112
H           0.23370963653660   -2.27758436210399   -2.76592215985695
O          -0.03063414460022    1.18365577285738    2.63272006681208
H          -0.72306012626178    1.14461733969374    3.29399157983666
O          -1.87689396367360   -2.21187512373905    0.70844903898405
H          -1.78035135864770   -2.96633821554481    0.12467166087777
H          -1.77651280033044   -1.42660894058405    0.13831590979467
O           0.40704951115463   -1.31530165704498    1.92441567209816
H           0.79764173877013   -1.20726395191854    1.03879472002109
H           0.19011607028893    0.23765590350040    2.41794783674871
H          -0.45866325878989   -1.72851727422458    1.75300213148405
O          -0.65464547709114    2.19903656871825    0.29280746236951
H          -1.09413982043913    1.42586187564538   -0.11405667566539
H          -0.45629346885867    1.91688749023622    1.22570506378644
H           0.62116369700382    2.10464427906790   -0.40221782629679
N           1.51008128291707    1.75545602255167   -0.97840739352003
H           1.13390344560341    1.37658203569457   -1.88555199295917
H           1.83701070073767    0.89677545803086   -0.50842799944082
H           2.23642768877838    2.45495535408024   -1.09229518919239
