    23
        -45.37023118  Gyration_radius:  2.33336876568 Dipole_moment: 4.355
 S          -1.30745682288821   -0.12244889634339   -1.02544982770885
O          -0.39503321923487   -1.23616511758571   -0.79934698695687
O          -2.63482601113682   -0.43316253921401   -0.52180332422127
O          -0.78011009070120    1.13617473474442   -0.54391245776652
O          -1.44121841317641    0.05240344451620   -2.60357409927813
H          -2.05540372433659   -0.62355332880494   -2.87685315214323
O           2.21809524539285    0.26649495421501    1.82686482522627
H           2.87515089618179    0.96254989150953    1.87235032916391
O           1.29003544344277    1.57716332168732   -2.18404112239267
H           0.53000532536538    1.56801061225931   -1.57251967050849
H           0.92899296261891    1.36063732235158   -3.04550129063820
O          -0.30213043792577    0.95881368218477    2.08444119256001
H           0.67025029187592    0.75043828894923    2.09193213693014
H          -0.48263185738789    1.27584104301676    1.17698815884944
H          -0.95732152967760   -0.33786053440932    1.98711823285068
O           2.20299599997149   -0.52514169204380   -0.68542527039484
H           2.26289505067146   -0.08558632547715    0.89744392346400
H           1.31785031239648   -0.92376071650833   -0.76391182505465
H           2.15519767877357    0.27060432947424   -1.24588877422665
N          -1.42583842958998   -1.28274688995219    1.62425878748319
H          -0.74581344544142   -1.70893180009770    0.97518530329418
H          -2.19576694037205   -0.98914819415539    0.96956361683133
H          -1.72791828484825   -1.91062558037977    2.36208126463312
