    23
        -45.36855622  Gyration_radius:  2.27726451099 Dipole_moment: 3.102
 S          -0.82919723476548   -0.24122401360565   -0.17807893839895
O           0.56235207757048   -0.56658543135683    0.16504937216011
O          -1.69775360853506   -0.30683508039376    0.97375293654869
O          -0.89570907494742    1.04563338227498   -0.87275226853704
O          -1.26770180994565   -1.30758126674253   -1.22998669248297
H          -1.31750617492584   -2.14781306344574   -0.68771816123703
O           1.69043578660674    1.61265446106726    1.15645477323249
H           1.47755989905551    0.66827970899403    0.99582670053111
O           1.87095168494949   -0.24378675873691   -2.06892885377038
H           1.46123491100430   -0.53478429447096   -1.21774227130294
H           1.28811341929497   -0.55817684856535   -2.76320959457819
O           1.31409401232258    2.11395552914097   -1.24409940303660
H           1.60894040556662    2.03348838424868   -0.20352737226724
H           1.73806844710715    1.31135357969047   -1.70012263683131
H           0.31950794845926    1.79182037075775   -1.17009397857492
O          -0.83479251144071    2.08050536909923    1.84199414446243
H          -1.28385027437126    2.65906407224319    1.22123452344810
H          -1.21692565011264    1.19506593998783    1.68612546247172
H           0.87341309195840    1.95728513029334    1.58783302441227
N          -1.23641160556945   -3.08633228799598    0.66720954777339
H          -0.27747410006185   -3.29196594102435    0.91639822051537
H          -1.80838580025279   -3.88955264257591    0.89505427555691
H          -1.53896386803522   -2.29446830044317    1.22932718000363
