    23
        -45.36855698  Gyration_radius:  2.27843963202 Dipole_moment: 3.124
 S          -0.32704889313994   -0.32428300206534   -0.74647010294354
O           0.68153111101290    0.45127532197203   -0.01101911158206
O           0.15274666433335   -1.64174329497855   -1.09211947952362
O          -1.58972462260036   -0.35116996261675   -0.00611489795348
O          -0.62179584420265    0.48643621658552   -2.04700702166425
H           0.22305728200295    0.37806123465542   -2.57383709859493
O           0.57161838827740   -0.26777209044279    2.53422149704890
H           0.92267795666328    0.03864298449210    1.67074603106744
O          -0.51881872016125    2.69653783808172    0.55802544739515
H          -1.06150917951240    2.90572209879644   -0.20507460763454
H           0.07368411902956    1.95735755321721    0.27545509509316
O          -0.27455156954697   -2.52131508873263    1.40662292745939
H          -1.23198363673513   -2.59184520898265    1.39948160029963
H          -0.02573283003011   -2.34780677515433    0.47810501262136
H           0.33102231148659   -1.20775430230062    2.35823523870770
O          -1.55172520021029    0.94425569646420    2.11076811928174
H          -1.72575656826404    0.36817532794190    1.25232119364619
H          -0.65654425733993    0.45575685346337    2.47899756668437
H          -1.22518819572845    1.81069828831179    1.69279452420638
N           1.74240132331461   -0.16476432426572   -2.91342606850267
H           2.11289825012280   -0.41355747686661   -3.82181974333637
H           1.55006994344417   -1.01582585133881   -2.39054118988812
H           2.44867216805129    0.35491796349576   -2.40834493171877
