    23
        -45.36531218  Gyration_radius:  2.30631381123 Dipole_moment: 3.299
 S          -0.09046911132942   -0.52899799747050   -0.80918378795159
O          -1.01145484354264   -0.17863895448878    0.26969450847145
O           0.25286366200088    0.63705810214760   -1.60967784484916
O           1.10622275925329   -1.18508737542050   -0.26985648522764
O          -0.78550464092027   -1.57872121372621   -1.71407842143300
H          -1.57827871361279   -1.07397218086837   -2.04760248587824
O           0.11246289355609    0.41550137454045    2.60823115961898
H          -0.44889834906972    0.44858140184418    1.80199260713030
O           1.92574915211227    2.19583587723671   -0.39469675305733
H           1.23668105603027    1.68450129434205   -0.90006663074864
H           2.63415967042612    2.37120586102131   -1.01759043510068
O           2.24640954784302    0.35236517366771    1.31652316443391
H           1.42432135127653    0.45118498870079    1.98922560135327
H           1.88812162941439   -0.38349483824163    0.66017488854977
H           2.23424661841662    1.19333362890587    0.72562834550341
O          -0.33050450435330   -2.19474276964773    1.99641007987030
H          -0.79439656567567   -1.65085067371527    1.33929881503098
H           0.40107302061560   -2.58736530539979    1.51291116337444
H           0.00546254671424   -0.50876463068468    2.90185797452638
N          -2.54333552580866    0.27761483754315   -2.14856875300138
H          -2.77797919420242    0.38225712088064   -1.16824846691717
H          -3.33874484951165    0.55496839599361   -2.71027970969305
H          -1.76820757942392    0.90622788265531   -2.33209853400944
