    23
        -45.36531207  Gyration_radius:  2.30619440386 Dipole_moment: 3.294
 S           0.68002747944189    0.67109407058232    0.17496501285835
O           1.51090808359025   -0.33717611000684    0.81632002261941
O           0.06932769152180    0.15489669822201   -1.04803411240025
O          -0.34986775642241    1.18189502132961    1.08693406429772
O           1.56167486457771    1.88890819413977   -0.20369034599667
H           2.23519528980679    1.47720736387483   -0.81300401409599
O          -2.36326498718789   -0.89155161852646   -0.78015880487423
H          -1.42093443537545   -0.75914441240823   -1.02682066688282
O           0.09782428978388   -2.13963915092775    2.02392165971826
H           0.70826416436016   -1.52460841024745    1.53311474500426
H           0.45722947418589   -2.21690385021345    2.91019943410805
O          -2.12351192152043    1.79876628490614   -1.07884542269484
H          -2.76538307300011   -0.03443680798910   -1.01588537611990
H          -2.00344159357686    2.25227756369816   -0.24038513892406
H          -1.25898160251458    1.39894431879054   -1.26710313478155
O          -1.92447557501521   -0.65327699671109    1.66462138627127
H          -2.24110490579920   -0.85048811815833    0.66504897233956
H          -1.22271088262419   -1.37043877116465    1.88848977368905
H          -1.33088325834682    0.20068533077592    1.52822764488673
N           2.90739327836654    0.19546451342120   -1.63384044106446
H           2.92932906187047   -0.41031097670297   -0.82008479361969
H           3.74612929865085    0.04955237296216   -2.18194007584712
H           2.10125703491471   -0.08171651055723   -2.18205040907470
