    23
        -45.36629908  Gyration_radius:  2.36415298696 Dipole_moment: 2.448
 S           0.36765063396300   -1.59800213697740    0.81192409823163
O           0.51430074632760   -1.42254983574329   -0.63101414813819
O           1.63590684375230   -1.68088744788573    1.49205054069619
O          -0.56852833423912   -0.63758575480395    1.36881545787997
O          -0.33003915711969   -3.01634947246652    1.00833448327815
H           0.42362378043715   -3.59634429241645    0.99266138567829
O           0.31069581115391    1.98354749067986   -1.83058064979568
H           1.20240776455860    1.81024345162726   -2.13995183287407
O           2.97049907720217    0.49560715886484    0.79841957958033
H           2.54262402351215   -0.36622903806423    0.99430019318011
H           3.59555596758450    0.64378335607463    1.51069621545654
O           0.57690130437677    1.72041743378005    0.74322028387929
H           0.09378660959862    0.93571721930029    1.05870750228231
H           1.51842329680110    1.45467910095240    0.78318063542998
H           0.37467957502777    1.99503164037441   -0.83072484389155
O          -1.11247847507022   -0.10610434662697   -1.98917255126580
H          -1.89056721774365    0.08651415106161   -1.23450439085646
H          -0.57834091011501    0.77300221631365   -2.05182795881392
H          -0.45610903646426   -0.73212401524140   -1.49113529886972
N          -2.69892507288883    0.29089948794629   -0.08223147616885
H          -2.05124713725705   -0.08452771269717    0.62392529540021
H          -3.57275029822539   -0.21531763502072   -0.03177649137339
H          -2.86806979531240    1.26657898105882    0.12668396096423
