    23
        -45.36317895  Gyration_radius:  2.39508912917 Dipole_moment: 3.587
 S           0.56997182010254   -0.64967512302524   -0.61971219138402
O          -0.09546896972593   -1.69381967220166    0.13747447799874
O          -0.38362804668067    0.26622653094030   -1.23630264882404
O           1.53644219598752    0.08452444241643    0.21189013866359
O           1.41041523672022   -1.30200937305717   -1.75468465243948
H           0.71556801244875   -1.80272296076001   -2.25522433267956
O          -0.80564706086795    1.05401868798294    2.68513739560766
H          -1.59182899878875    0.83692810585894    2.17920580876357
O          -0.59711090570210    2.79404555822976   -0.82673677548857
H          -0.61563325998129    1.82119967124650   -1.04835313623562
H          -0.18791050237195    3.22976561173296   -1.57665935830071
O           0.57550450221097   -1.15343064926106    2.61816206992545
H          -0.30916691482414    0.19308478723161    2.80438357948899
H           0.27665447266991   -1.48398263154855    1.74008881459987
H           1.49733208645409   -0.91770796290629    2.48467541272526
O           0.83524407425714    2.24451120418119    1.18403343109009
H           1.23588236639973    1.35176803201274    0.76462583272865
H           0.26663320085658    2.62949466071731    0.41708203368575
H           0.15943095369606    1.87381756275254    1.88430686706683
N          -0.86310866606185   -2.33062056452469   -2.51502810504463
H          -0.98377951928178   -2.51145157324420   -1.52252415391959
H          -1.30359104993614   -3.07360198460690   -3.04341378523311
H          -1.34220503751963   -1.46036237019204   -2.71242672279970
