    23
        -45.36531217  Gyration_radius:  2.30642156825 Dipole_moment: 3.301
 S           0.57505243890038   -0.34258939885897    0.70281516130754
O           0.84292898726563    1.01830442993858    1.14414288451886
O          -0.83898044710868   -0.52786192607276    0.38451360025319
O           1.41224721453046   -0.71307948378516   -0.44399278231337
O           0.94542203075676   -1.32696589867714    1.84187641561422
H           0.35247272480779   -1.02072506067582    2.58285302269573
O          -1.51243415957459   -0.14979014065111   -2.16248551745945
H          -1.49777944457239   -0.11089258994329   -1.18032603832144
O           0.84508562341682    2.70118693235905   -0.82339944771643
H           1.65460295080791    3.21005021434787   -0.74360917604675
H           0.79866723189129    2.13054160538167   -0.00850821569981
O           0.81799220785055    0.71073944717006   -2.39370037957480
H          -0.20472761467919    0.41027441799905   -2.44515988618440
H           0.82527662572129    1.61745665801623   -1.90937911416200
H           1.18565193631636    0.06321317574961   -1.65512598470874
O          -0.54078263919448   -2.57401537034830   -1.41389624100931
H          -0.72492654221938   -2.06458365305966   -0.60807103125254
H          -1.41273746209290   -1.10464130203434   -2.33688758401490
H           0.41802874758551   -2.61420234780899   -1.46107765703324
N          -0.81161276489556   -0.03087800794023    3.24115151287299
H          -1.19480355535860    0.11421615479936    4.16705107312756
H          -1.56950204179298   -0.21980679610581    2.59542593865364
H          -0.36514201789106    0.82404893987042    2.92578946653197
