    23
        -45.36531212  Gyration_radius:  2.30630311444 Dipole_moment: 3.304
 S          -0.37859900306185   -0.43625059926711   -0.78038469621185
O           0.69770389685505   -0.78760005166414    0.14330638290601
O          -1.67614237836581   -0.48615344422676   -0.12288276868166
O          -0.12869606072252    0.87814004189672   -1.38316233996144
O          -0.36272733728195   -1.45550674364843   -1.94858038017557
H          -0.54120873043458   -2.31580513758508   -1.47682384949382
O           1.86617400153401    1.25148839668795    1.39357946760324
H           1.42672584964929    0.39162983767455    1.20991295187527
O          -2.05598328735654    1.54394794377913    1.43843154081351
H          -1.96135731749651    0.70493721858091    0.91027666118809
H          -2.91574574685172    1.90387432843974    1.21072002242043
O           0.00881160600883    2.59560910187541    0.40915811996407
H          -0.83417023882975    2.31994089894763    0.92874990725716
H           0.83213402487056    2.15482101832090    0.92524498865298
H          -0.04899212686386    1.98755840323101   -0.44357617122303
O           2.70973514892300    0.59351937744100   -1.10360267219593
H           2.55425161481515    1.28815154529295    0.70269238817838
H           2.12498869077421   -0.11526699497148   -0.78981789757472
H           2.20477728692902    1.03820749446814   -1.78947536328751
N          -0.84052245252883   -3.23153592127054   -0.12055828782101
H          -0.00700878134179   -3.00915905583497    0.41126086785305
H          -1.09850199643321   -4.19448149941673    0.05641166496311
H          -1.57564669274294   -2.62006614838049    0.21911946299843
