    23
        -45.36531198  Gyration_radius:  2.3062075169 Dipole_moment: 3.293
 S           0.27404891437710    0.50057674875427    0.78600356856103
O          -0.96275550169899    0.44739316591917    0.00967386328101
O           0.50263202358237   -0.74607888989349    1.50148041908851
O           1.40873646901420    0.84242569003046   -0.07937940132961
O           0.15042118491254    1.65788459170138    1.81047400808635
H          -0.62580132576016    1.36488668996246    2.36347764814531
O          -0.71044854924197   -0.32294326702722   -2.52603965789080
H          -1.02127607295356   -0.24126367385292   -1.59712771106638
O           1.31413247927889   -2.63701112374918   -0.07011328930586
H           2.09327467582380   -3.01613918536239    0.34197163610240
H           0.94684331143097   -1.98440979721698    0.58636476653361
O           1.63167336561316   -0.87373484140418   -1.86417942849517
H           0.66279717078386   -0.72629547962885   -2.28524117233096
H           1.67068928770181   -0.09714772806051   -1.15995672216336
H           1.55924927833617   -1.70560068434523   -1.26463046381291
O          -0.26938470128790    2.28479049532800   -1.90185568429439
H          -0.64601565786882    0.60845309000938   -2.80937775742887
H          -0.66379024444676    1.85434109772137   -1.12600434414619
H           0.64195427311930    2.45307490035902   -1.64835140582935
N          -1.84823760464346    0.30899217859645    2.76501053453693
H          -1.24595132224472   -0.50758339553608    2.76057348518651
H          -2.34872988410542    0.30659556833355    1.88371316447842
H          -2.51406156980129    0.22879384938371    3.52351392402969
