    23
        -45.36457398  Gyration_radius:  2.45148153592 Dipole_moment: 3.527
 S           1.04750383849641   -0.30499614679431   -0.34467062540804
O           1.27717175586290    0.38311413666045   -1.59237383580291
O           0.44213427621441    0.66140838094310    0.66778255423737
O           0.23344685857865   -1.48649862281063   -0.45552346162161
O           2.39129572484690   -0.67879259533426    0.29686661966836
H           2.94062466464046    0.18431013890169    0.23641499014021
O          -3.14385723009490   -0.46557864095435    1.44525763020362
H          -3.26273301459536   -0.13061497179840    2.33558454726321
O          -1.29376248935976   -0.01525920387670   -2.32861711365442
H          -0.35934858191517    0.25117827580367   -2.35324698500461
H          -1.27406931742226   -0.93262361197053   -2.03802315956903
O          -1.24276366407776   -2.34417494913701    1.58331419979639
H          -1.46570207620115   -3.24810230949201    1.35263109716767
H          -0.62863866876460   -2.03360633891232    0.88671960968831
H          -2.48275330614207   -1.19167798669661    1.51451227207450
O          -1.83604608156141    1.26546151645674   -0.06136053910702
H          -1.82298759872077    0.89822791643398   -0.97756733140682
H          -2.42113865801118    0.66464646398049    0.47084681384743
H          -0.56278890277431    0.98384096490800    0.38293598727437
N           3.36548500704568    1.64995122938737   -0.14855196994735
H           3.02558230878439    2.33460663272443    0.51366935807533
H           2.76362256942904    1.66383107738905   -0.96759004595550
H           4.30972259574083    1.89134865418535   -0.41901062195799
