    23
        -45.36457396  Gyration_radius:  2.45190750538 Dipole_moment: 3.528
 S           0.67043701713052    0.46729115875384    0.79879158111357
O           0.80019095722397    0.04579015002849   -0.66096451456415
O           0.30187736657332    1.86093742656358    0.86896464255955
O          -0.21963987612067   -0.42171815938844    1.49758522580854
O           2.09506671488692    0.27949977197222    1.33955641156504
H           2.63380325413993    1.01711529971513    0.87513933507236
O          -1.96865093482673   -2.49098515805990   -1.45605062947145
H          -1.56637403586885   -2.99924147323911   -2.16230408894851
O          -2.30489350067263    1.22804006684274    0.52886597807886
H          -2.25089146974103    0.50209018739563    1.15855640926320
H          -1.49360900178905    1.74142489279661    0.68058977607116
O          -0.51466394899283   -2.95453523160476    0.74259097741352
H          -0.93207718991755   -3.38016796709169    1.49396029792465
H          -1.46096967285119   -2.70918100590395   -0.64138671249997
H          -0.31886814709753   -2.03864173421635    1.02824082045169
O          -1.43323319767265    0.08330027843918   -1.70846964789970
H          -1.94179371375983    0.55438453946535   -1.00574302074333
H          -0.15895788497784    0.06709771658909   -1.18448204187849
H          -1.72554480993367   -0.86537719035744   -1.67499219280900
N           2.97327683053119    2.29067356506537    0.01457529031708
H           3.11485819908084    2.06888031587690   -0.96194800777190
H           3.66034256996729    2.97525954487284    0.30134212373718
H           2.04031445468176    2.67806300549878    0.12758196723190
