    23
        -45.36457401  Gyration_radius:  2.45164264363 Dipole_moment: 3.526
 S           0.19020381625641    1.07839292349306    0.32749642527711
O           0.69645350442007   -0.30887690686607    0.70762533527526
O           1.06072030439611    1.65439167349899   -0.66924878523563
O          -1.19583410191343    1.01677165543783   -0.05453974906285
O           0.31517227599945    1.86265763434773    1.64135006384462
H           1.32696608894180    1.95318029100160    1.77796447813644
O          -1.87342250261917   -2.91042888405277   -0.46237281591594
H          -1.72891812908503   -3.62146162282086    0.16415458324032
O          -0.24783696760750    0.33258003838449   -2.63152676031607
H           0.37381404539243    0.92435642336255   -2.17527105926403
H          -1.10763879292967    0.55652271211942   -2.26152945724690
O          -2.82216454649904   -0.83746395002596    0.93931375066656
H          -3.70288989820899   -0.51078555575076    0.74551364427524
H          -2.27179351495336   -2.17187647617192    0.05235676683033
H          -2.20618096498827   -0.13035072987689    0.65748829663825
O           0.41149787732404   -1.82263744678820   -1.21942605111505
H          -0.43584494562933   -2.30124295851321   -1.02060593253013
H           0.19793420976780   -1.16306757694261   -1.92226373750217
H           0.61682875711373   -1.01937267133025   -0.11943523613292
N           2.87426118500328    1.88965281846847    1.49959474058720
H           3.50650657021815    2.63503642261618    1.75973522473393
H           2.74447533573241    1.89079975676714    0.49140665057062
H           3.27769038388172    1.00322241963734    1.77221962424402
