    23
        -45.36457397  Gyration_radius:  2.45187708097 Dipole_moment: 3.527
 S           0.01382756186367    0.79008091360592   -0.82559244259116
O           1.39226494315589    0.92299684073808   -1.23211711413393
O          -0.34171650626905   -0.68747396863122   -0.70000478078845
O          -0.32116820196256    1.48869143031120    0.38706659977151
O          -0.90876596554001    1.27174363800663   -1.95428849786837
H          -0.53320716957854    0.81466179522994   -2.79103009303340
O          -1.04147173009730   -1.47146714587914    2.99169021179012
H          -1.64910508408491   -2.20940902670287    2.91973825119322
O           2.21357546654806    0.65538573147028    1.32999062371198
H           2.22633271767782    0.79581853655490    0.36832354813761
H           1.53411169143862    1.25657142741223    1.65128553356684
O           0.89528061031403   -1.65156606437560    1.20452035232679
H           0.19763410126083   -1.17494579382215    0.11617110434647
H           1.52599399364573   -0.91446445517604    1.38699920709046
H           0.23350160202335   -1.64128131565480    1.94511329759449
O          -2.29663050239663    0.65539900342127    1.96012296498952
H          -1.62888106517745    0.96619753233316    1.31488340027709
H          -1.53014890816404   -0.68394140448200    2.65998094598304
H          -2.48147982439592    1.40567302512231    2.52834212840226
N           0.42274516173339   -0.01162770994742   -3.72946086119818
H           1.23020008803389    0.14887168161536   -3.13319672370131
H           0.63909171384562    0.27400665605812   -4.67528067937588
H           0.20801532611594   -0.99992132720246   -3.72325697649207
