    23
        -45.36629895  Gyration_radius:  2.36418149252 Dipole_moment: 2.439
 S          -1.80805482342037    0.28094317651955   -0.03172648820403
O          -1.11820887422076   -0.36959535316946   -1.14323108436745
O          -2.59986819773885   -0.64032391665760    0.74432092146328
O          -0.90158155541013    1.11455913064268    0.73787387319512
O          -2.83986943571728    1.29657896622284   -0.69590059122144
H          -3.58308380636156    0.72528452179050   -0.85701116437349
O           2.31524268907244   -1.32453340641969   -0.50868070819245
H           1.98679070682752   -2.20858864554210   -0.68618579902783
O          -0.94677033890471   -2.56984396143834    1.48136131267338
H          -1.33491139905557   -2.94222902536849    2.27554622615280
H          -1.60382945251064   -1.92406232064669    1.14152263542321
O           1.11946949908590    0.38108427501077   -1.95011926254609
H           1.69797549766020   -0.32056931374925   -1.46519369194071
H           0.15737185415578    0.08158312213813   -1.71331684533698
H           1.24158778281256    1.30436077753164   -1.36482865787974
O           0.93992608114010   -0.65678740676599    1.59503912241126
H           0.31837979040714    0.06225210919807    1.38196249431778
H           0.37121921619108   -1.44993614547069    1.67409482926990
H           1.89045037830545   -1.05304762516910    0.35732451899189
N           1.21986258251115    2.38721388627470   -0.44070036781479
H           0.38743035367230    2.10874424423082    0.09643786276173
H           1.07650320768104    3.31542804721643   -0.81512576829200
H           2.01396824381811    2.40148485361294    0.18653663254371
