    23
        -45.36457396  Gyration_radius:  2.45205929698 Dipole_moment: 3.530
 S           0.39807696293948   -0.63572987550551   -0.86146257183200
O          -0.96236482501816   -0.29493032149946   -0.26269444609450
O           0.69871304660707    0.28294961430832   -1.93321812105819
O           1.39760267587060   -0.69487063610567    0.17208509135167
O           0.18041912148428   -2.04455465940015   -1.43157706326748
H          -0.45175009206422   -1.89438831614807   -2.22410920891892
O          -0.44215876952621    0.93799337799764    3.33620916562998
H          -1.27667660629651    0.69937390947215    3.74316646201455
O           1.62429770599373    2.10600285643825   -0.16411734529956
H           2.11869294273371    1.44023755624830    0.32444039345376
H           1.39047462240427    1.66945428819350   -1.00049825646945
O           0.76585210251757   -1.35505044594285    2.66935615192633
H           0.01829522435583    0.08948893828713    3.14348930433759
H           0.96256415258412   -1.18950901681078    1.72449943970595
H           1.60597357696099   -1.57212168836861    3.07803097743917
O          -0.80537657406438    1.87840079556804    0.89457461178699
H          -0.67802711924835    1.63003868894908    1.84775406775229
H           0.07541347928786    2.18120567729430    0.56760260312200
H          -0.95929271348052    0.67319940157555    0.24434749939609
N          -1.31095581941505   -1.16197454927778   -3.32046073379263
H          -1.35612313595393   -1.48034459058569   -4.27940111701792
H          -0.74822096682665   -0.31699499860825   -3.26955031543295
H          -2.24542898184058   -0.94787601607355   -2.99846657873476
