    23
        -45.36457401  Gyration_radius:  2.45201492138 Dipole_moment: 3.529
 S           0.24521466859914    0.89377665017886   -0.66813621482392
O          -0.76662586387067    1.88692798371780   -0.39813612102265
O           0.75313861192977    0.31107086241811    0.64635406634877
O          -0.17467598540558   -0.16099388787260   -1.55244539473902
O           1.49422761463496    1.57059625881392   -1.25037505313040
H           1.65520681026144    2.36792023757811   -0.62694159771823
O          -0.28353586304598   -3.38115334438124    0.83094775928039
H           0.40393439928606   -3.74589965367128    1.39069163411236
O          -2.65661203402685   -0.03611317732410   -0.19825269185737
H          -2.33509338097684   -0.48903403167523   -0.98429089937779
H          -2.22934663813931    0.83638899069211   -0.22925751658268
O          -1.05367166987438   -1.00509099224912    1.69041002712427
H          -0.84387211727061   -1.94097372839677    1.43224757297160
H          -0.01576755071198   -0.26487332917664    1.16749263513153
H          -1.81400550923187   -0.72633717307371    1.12592342228978
O           0.91201789964502   -2.58483455171329   -1.42709088751651
H           0.59420829445458   -1.66047566230040   -1.48548595692599
H           0.15569547179480   -3.14071821407138   -0.01662924278323
H           0.66314399608968   -3.00057400007044   -2.25485131002238
N           1.43242891869778    3.43210995577621    0.51080515831675
H           1.79033807681983    3.12134260084449    1.40417743970432
H           0.42400432159009    3.30440262845008    0.50273419097188
H           1.64964752874929    4.41253555750726    0.39010899024949
