    23
        -45.36457400  Gyration_radius:  2.45201245763 Dipole_moment: 3.528
 S           0.93500641874936    0.04511250413836    0.65511086897799
O           0.59173613718884   -0.36687851027652   -0.77242273012077
O           1.34666983546159    1.42830254415250    0.67369884985715
O          -0.15653083675192   -0.26480634862319    1.54014753990350
O           2.12996306672183   -0.85652778388880    0.99599204006017
H           2.88582368662794   -0.49734662894333    0.40453742342128
O          -3.17148026546986   -1.10167642349800   -0.96424006991854
H          -3.20677684722836   -1.73695969864768   -1.68126812078884
O          -1.23236214816939    2.23529253353010    0.76454600707505
H          -1.45525318868153    1.57881611624236    1.43216589451451
H          -0.26057264214696    2.25429815334978    0.75812559370801
O          -1.44553138374799    0.82930225441583   -1.48354032725201
H          -0.29254082851826    0.15199403719818   -1.15088909583944
H          -2.17138633666277    0.16733187150390   -1.33698871921028
H          -1.51956891541138    1.48753556755974   -0.75166001775167
O          -1.82348490269120   -2.27287181315824    1.02913957736612
H          -2.72186059269053   -1.55952143483693   -0.21771115775793
H          -1.14340726687885   -1.59292382469710    1.21351900335131
H          -2.27121598682977   -2.42899777280973    1.86288489902528
N           3.68259529165834    0.42798159652157   -0.58853373984609
H           4.65865568490924    0.65727405919363   -0.45543428498192
H           3.11058541249938    1.23964264371053   -0.37112367849678
H           3.53093660806577    0.17562634787409   -1.55605576529362
