    23
        -45.36586770  Gyration_radius:  2.44607902941 Dipole_moment: 1.618
 S           0.91997231132225   -0.69307079896278   -0.81982056494009
O          -0.28432125153651   -0.44146561724492   -1.57848609056114
O           1.44518456729024    0.62827634843043   -0.25967176465113
O           0.76452305626049   -1.66728061298233    0.22376437735592
O           2.04441119767522   -1.13183539481303   -1.76510109998452
H           2.02272526293570   -0.41102453306089   -2.49144421626940
O          -0.50370976666851    0.38287485271176    3.41215357838501
H          -1.27752037661621    0.66004142640897    3.90616991773712
O          -2.22638796912574    0.21143243376991    0.17486900535736
H          -2.18266530985450   -0.53398879472705    0.78984914496379
H          -1.69996372516532   -0.05739028330911   -0.59950064620366
O          -1.23772559352323   -1.78030687488998    1.91802069521329
H          -0.47406878326539   -1.77701950861897    1.29537972191763
H          -1.31043940269691   -2.68156197373361    2.23716650106849
H          -0.74158903589556   -0.45482705640199    2.96871657816791
O          -0.29386185211698    1.74071982051865    1.11461120473864
H           0.72632451031125    1.14832537076363    0.34627545233569
H          -1.12281240622020    1.33535534152815    0.74840293329608
H          -0.21359746081374    1.36718514177207    2.02256867119118
N           1.54985899176080    0.83745230651242   -3.32781802589168
H           1.63131013734931    0.90366001767456   -4.33385585788494
H           1.89075778630532    1.69346863707643   -2.91038102865495
H           0.57359510228264    0.72097975156892   -3.07186846669538
