    23
        -45.36586780  Gyration_radius:  2.44598961289 Dipole_moment: 1.623
 S           0.67144361144044    1.06244258745646    0.64616901012451
O          -0.08420505506242    1.47101589130537   -0.61753401166635
O          -0.25393389715030    0.45760247222701    1.57750410092249
O           1.80328413618523    0.23937001395703    0.32388922300154
O           1.15840088046034    2.40650653036804    1.20025438800745
H           0.28498953661939    2.87618055497073    1.45357915920418
O           0.62123421105343   -2.04368851708191   -2.73490748126382
H           0.25531582280770   -2.89589342909760   -2.97892910924103
O          -0.96489610439945   -1.94214413903010    0.57352915127823
H          -0.09885643720760   -2.34306254968639    0.41514001738967
H          -0.79297082945991   -1.16062020515919    1.12906705736048
O           1.71118801454819   -2.32080418426945   -0.24795044007681
H           2.56871681658501   -2.70270251605647   -0.05274341186237
H           1.78837495307107   -1.36295814721561   -0.02978940072637
H           1.10614443373756   -2.17826687098196   -1.89718017729753
O          -1.24126501519870   -0.48598458548254   -1.60793633967151
H          -0.58439731188634   -0.93342843022351   -2.19000195224452
H          -1.32664570753129   -1.08351850439395   -0.81968040666547
H          -0.60198970426456    0.65387271148760   -1.08566263340149
N          -1.25097394344655    3.11197491981670    1.71272494661609
H          -1.61213066584273    3.68691003347624    2.46246814216693
H          -1.43288134044373    2.13328449063442    1.91606582551018
H          -1.72394637463999    3.35391190296346    0.85192435250131
