    23
        -45.36629907  Gyration_radius:  2.36413892656 Dipole_moment: 2.428
 S          -1.59461195653699   -0.76402514007641   -0.47592950350620
O          -1.66427147459307   -1.27717875703567   -1.82122552312783
O          -0.62352805854834   -1.47968225211177    0.34839928061525
O          -1.41750419238992    0.67365869252795   -0.37309724307961
O          -3.01734659413271   -1.05317998987639    0.17923062940911
H          -3.24334684399255   -1.88198265211092   -0.22902647933375
O           2.64880923966175    0.04417080113616    0.58848804134447
H           2.93811370107834   -0.77944409642301    0.18993816276353
O           0.80860021775386   -1.19768584528918   -2.75746597641762
H          -0.09836327571018   -1.33249658248300   -2.40600844703572
H           0.71424298345260   -1.15440295291022   -3.71100378083954
O           0.69037308502416   -0.35371652037039    2.14489016109468
H           0.20406128430567    0.63232616560696    2.15972975521138
H           0.11297457380004   -0.88827291999515    1.47225398665784
H           1.56703353232676   -0.21061374310711    1.62217114775494
O           1.10327767358359    1.01819535184837   -1.26252133336472
H           0.17567283030847    1.02206293992430   -0.96542038842043
H           2.12624103139250    0.51470488758802   -0.12535459835898
H           1.14522865699263    0.28381668945942   -1.90876942793047
N          -0.50136095623052    1.84785841743800    1.92793099686647
H           0.10099179994948    2.63054697024521    1.70703802756385
H          -1.17582928547063    2.13493131127433    2.62436886939681
H          -0.99945797202950    1.57040924473699    1.07138366273023
