    23
        -45.36586770  Gyration_radius:  2.44609739969 Dipole_moment: 1.619
 S           1.40608494872273    0.15311996909010    0.00218256878631
O           0.97095210000073   -0.14590013492662   -1.34339393775986
O           0.63723100038796    1.36821723167920    0.51969419663139
O           1.29591827263659   -0.95035109605642    0.91463624885091
O           2.85506518189295    0.65339129632328   -0.02222226395703
H           2.82979915889000    1.38277105974022   -0.73982607475521
O          -2.42980432171477   -0.76673876543983    2.35706885408096
H          -3.32506445650884   -1.09433995248461    2.25260517924970
O          -1.53870368916527   -1.11900083493394   -1.18670668563695
H          -0.63772983904699   -0.85916588234923   -1.45087675436310
H          -1.42475135516789   -1.82973059114800   -0.54043916243296
O          -1.80675645564559    0.96224966816633    0.41044030631639
H          -0.42936756001220    1.23939537443700    0.49392841614305
H          -1.85759210301979    0.25987160064816   -0.28944648439904
H          -2.05097859873399    0.50037907369337    1.24555711144686
O          -0.77341181355557   -2.55239169712246    1.12421016820453
H          -0.47219747707846   -3.38449529596712    1.49325919989945
H          -1.83642572884185   -1.46355365209875    2.01466716499688
H           0.02539022433169   -1.97802701038025    1.07048090625905
N           2.29288229110802    2.30429123139670   -1.89947896267479
H           1.76518504936668    3.07994429562357   -1.52121229033794
H           1.63882948893504    1.60544941512547   -2.24002803405839
H           2.86544568221398    2.63461470699105   -2.66509969048841
