    23
        -45.36586774  Gyration_radius:  2.44595891881 Dipole_moment: 1.616
 S           0.97021574745054   -0.10874349278024   -1.02227336301387
O           0.09202308546633    0.99818958812916   -1.32695309916853
O           1.54918709177132    0.08129112203653    0.37905678130603
O           0.35527430897823   -1.39994016569474   -1.15285085461557
O           2.21445573308206   -0.04276013465829   -1.91563999041947
H           2.52741116392060    0.92424147617349   -1.79572132742417
O          -1.35668428063316   -2.12447858145600    2.38494694532638
H          -2.17354296651664   -2.06958585353222    2.88436249207281
O          -2.10893354391886    0.73434781076677    0.20824041482706
H          -2.37521827481849   -0.17212663132991    0.00031285466297
H          -1.44537156667766    0.97234994410538   -0.46404203399642
O          -2.02631351211555   -2.05022592866614   -0.26026948723174
H          -2.34863197036658   -2.79071521544877   -0.77700177798859
H          -1.61000682660742   -2.21104877900080    1.44510786740189
H          -1.13157209753897   -1.84318486094115   -0.61741382542238
O          -0.27111047284082    0.29917748983620    2.04884226429792
H          -1.02426636222116    0.60595366477249    1.47928229556158
H          -0.51677092106721   -0.61690853257196    2.31511195266107
H           0.79669531429177    0.17888392753944    1.14028260481980
N           2.54162728885164    2.43295652116846   -1.34154174524184
H           2.90296297689909    2.51705479053053   -0.40048155292834
H           1.52845573592085    2.49879992256716   -1.30451961886523
H           2.91011434868074    3.18647190846052   -1.90683779661519
