    23
        -45.36528549  Gyration_radius:  2.38305115891 Dipole_moment: 3.489
 S          -0.50590264687001   -0.70997957798453   -0.70960600036773
O           0.90362304939275   -0.25927146328240   -0.78593829419765
O          -0.69113638569533   -1.59886987525573    0.42186373881444
O          -1.40577018693416    0.42962591607020   -0.69327848099831
O          -0.77850869759275   -1.49191935009632   -2.02282185248215
H          -0.16275079562224   -2.27243891327005   -1.93772294970078
O           0.58270443101767    1.54381002515361    2.50911785353498
H           1.13155042945809    0.93163684135884    3.00244356429721
O          -0.68862436044672    2.89912857556526   -1.04969843977800
H          -0.63412060276819    3.05926442624997   -1.99362975600708
H          -1.09907373686646    2.00324581912658   -0.94434479369235
O           1.36780277311781    1.96685845324483    0.13188095813770
H           1.22921045112779    0.96916050819548   -0.29086268539981
H           0.62257390754398    2.50393704624119   -0.31396823158686
H           1.09860085718492    1.86522624830133    1.12248706729204
O          -1.63001819125272    0.23121482507965    2.07745224360269
H          -2.14375938988596    0.70268844436348    1.41404986478276
H          -1.31788014913274   -0.56884146539250    1.60280883207694
H          -0.30643086148343    1.09755497631995    2.40860621472621
N           0.94988982801847   -3.25002668019185   -1.18672492565754
H           1.84457052479361   -2.77949983374793   -1.23304885321597
H           1.10297341584390   -4.24892917117785   -1.24046267785571
H           0.53047631705218   -3.02357575487255   -0.28860239633760
