    23
        -45.36586761  Gyration_radius:  2.44578684487 Dipole_moment: 1.612
 S          -0.14232126727875    0.35781649636488   -1.36007541794268
O          -0.46769364797270   -1.10374584900780   -1.05509650758463
O          -0.99374750055611    1.21003482859885   -0.56118600966068
O           1.26161310149974    0.61503288989732   -1.20171872858497
O          -0.52194103689216    0.48837797485917   -2.83983223981440
H          -1.53606785152865    0.35187192563104   -2.82547999059369
O           2.40509064402922   -1.60742982916569    1.91477929136704
H           2.55978551185217   -1.60691282291513    2.86122476756879
O          -0.17925440363282    0.99863439703350    2.00104490062371
H          -0.57880119343183    1.26128671398027    1.15235527293743
H           0.76439429965726    1.19341674461080    1.91469608599174
O          -0.21527604474344   -1.56166119527155    1.36908862338966
H           0.73401716388199   -1.78154820616891    1.51374721372556
H          -0.32421267524795   -0.65269983336218    1.75321639939171
H          -0.37056513517394   -1.35217601944651   -0.01418532985305
O           2.49331019342594    0.99156976332679    1.08564081757454
H           2.54935243106088   -0.69070006094351    1.60848201476235
H           3.28975169810499    1.49831014531229    0.91762694734564
H           2.06632534913741    0.86404616589425    0.20678383915121
N          -2.99819412446015    0.15398752772007   -2.27190769611260
H          -3.82354651149372    0.54096138567396   -2.71025721551539
H          -2.80742101130882    0.65087084189393   -1.40648837671380
H          -3.16459798895209   -0.81934396450128   -2.05245865143656
