    23
        -45.36528559  Gyration_radius:  2.38292710776 Dipole_moment: 3.487
 S          -1.08752774611972    0.16682925036255    0.23531609726756
O           0.03328294571529    1.05752697827666    0.61744543022175
O          -1.31594333390939    0.22847313287848   -1.19600203919229
O          -0.85434235808321   -1.18265161893077    0.71826950155136
O          -2.33944707515554    0.70987435034460    0.97573490503000
H          -2.45801838637853    1.60993820682068    0.56178357328911
O           2.46306470548147   -1.01495929174179   -1.38620261042703
H           2.59168033104210   -0.36354211850863   -2.07787167883429
O           1.09258933834276   -1.88906075813213    2.28317295484110
H           0.28556303187412   -1.74602668098398    1.72587113963891
H           0.83091438744902   -1.70062234096578    3.18627356869397
O           2.20650026372566   -0.03177593986699    0.94050511084425
H           1.92954674428905   -0.81043818903593    1.54023266713455
H           2.39873053101275   -0.43643693048096    0.01127517670120
H           1.26978171677676    0.51447440558085    0.81036733200949
O           0.06033255969942   -1.94118806045568   -1.80287509021948
H          -0.21426511518498   -2.44558191889498   -1.03054899681130
H          -0.49417280528104   -1.13270598034382   -1.76045134980352
H           1.58325513684378   -1.45008272091821   -1.57722735837376
N          -2.12472851945357    2.84774981438331   -0.49414981153793
H          -2.72674727900423    3.53750237365804   -0.92540411730876
H          -1.84343968700636    2.16511584394658   -1.19324217257463
H          -1.28660938667317    3.30758818300279   -0.16227223210220
