    23
        -45.36528545  Gyration_radius:  2.3832229038 Dipole_moment: 3.491
 S           0.25070620249278   -0.73845287271805   -0.80983835220231
O           1.57095762802091   -0.83731355556731   -0.21670672688621
O          -0.79424381333415   -0.90336459672770    0.22777950889823
O           0.04737945187528    0.49597764590657   -1.54709037146557
O           0.05162381491991   -1.90914558250747   -1.80993238087138
H           0.25045938680942   -2.70748914842942   -1.24537666388490
O           0.31558665808869    2.25681965429918    1.95794746580067
H           0.69863697797987    1.81662361928555    2.71875491870859
O          -2.01632987244518    2.05214672687377   -1.30480388980270
H          -1.20450699486779    1.52803141593374   -1.52495416473527
H          -2.71855099625523    1.70230521141991   -1.85628674285496
O           1.98046564275608    1.76128195362460    0.01151054114023
H           2.00486028578020    0.78058783984619   -0.00953047207792
H           1.55912533319719    1.99577968308065   -0.82142338979752
H           0.98095339389411    2.15799630280165    1.21821062651271
O          -1.80055786870530    1.16618606604761    1.07481618265247
H          -0.99362940575012    1.66036665138183    1.48520173106591
H          -2.00840216933069    1.63839985758538    0.19369289481466
H          -1.39232206556046    0.20892399278096    0.74228845543031
N           0.71822887807378   -3.51314321965282    0.12911374890170
H          -0.05350069706249   -3.46870443160276    0.78213446374410
H           1.35220737671515   -2.74986671115417    0.35122845183983
H           1.20085286272324   -4.39394650250095    0.25326418507368
