    23
        -45.36528546  Gyration_radius:  2.38317890015 Dipole_moment: 3.491
 S           0.07301478371037   -0.81456933613780   -0.77136034035497
O           1.11206403494909    0.19868000569167   -0.47221123240609
O          -0.03510396824976   -1.76407091873493    0.32019731105313
O          -1.18811775329657   -0.17177411208608   -1.09546269766556
O           0.55187045868605   -1.55694961604465   -2.04802815378761
H           1.38724023055802   -2.00330070277621   -1.73402899948236
O          -0.88305202334528    1.49285178190662    2.45277465798244
H          -0.29517382629316    1.14648956764501    3.12637444802622
O          -1.51922992011465    2.38378492897425   -1.41041184876143
H          -1.26778122691537    2.60741415186092   -2.30839206784324
H          -1.52099611660494    1.39391259532563   -1.36199539966604
O           0.29844231827278    2.35097422484737    0.37554745446545
H          -0.17587537409957    2.08566833731178    1.25219343826640
H           0.72591196366248    1.41651335520436    0.00454438608035
H          -0.43980269841136    2.54370025137382   -0.30292804101044
O          -2.09620524843346   -0.61204044607101    1.50223646485376
H          -2.54608402752465   -0.36683318174215    0.68750157927820
H          -1.35126305691902   -1.17223825448412    1.19561240105061
H          -1.42597542943144    0.71588162193001    2.13460181688875
N           2.53986613323135   -2.45543008317908   -0.62770926328743
H           1.82421672073582   -2.48491141984086    0.09396063413951
H           3.12016664946098   -1.64591071131035   -0.44909479117223
H           3.11186737638958   -3.28784204966888   -0.56392178664458
