    23
        -45.36586781  Gyration_radius:  2.446132308 Dipole_moment: 1.622
 S          -0.04191185745199   -1.00512058588600    0.99260087200871
O           0.98975259378080   -1.24945695304532   -0.10800472961860
O           0.23098015967925    0.26564873292241    1.62505728462988
O          -1.37787103392248   -1.13227228716478    0.48125951764483
O           0.23806691992195   -2.14449815838184    1.97946889417985
H           1.17528073359982   -1.91957794469853    2.32400021185914
O          -1.25294555402192    0.38360892361787   -3.21391852577909
H          -1.39967283664985    1.17071117452755   -3.74174322310823
O          -0.39558519952192    2.20300864194261   -0.14276897724012
H          -0.17674107406684    1.67382957747829    0.64530591430494
H          -1.30201344789121    1.95832939667907   -0.37594620582660
O          -2.66264315259166    0.69556418496458   -0.89719970674195
H          -2.21753872034327   -0.01219399808504   -0.37576436609270
H          -1.84683705911087    0.45175389914525   -2.44084756730159
H          -3.60363559912910    0.54559243031377   -0.79065095204649
O           0.97207583622631    0.61462571043067   -1.74352911655189
H           0.27203049417554    0.40114924075400   -2.40289527352967
H           0.58811275738249    1.35030549979945   -1.19854827601963
H           1.01862233965148   -0.46735843219229   -0.84431559270721
N           2.51794307987816   -1.13078156957614    2.56221330645308
H           3.16499997586103   -1.29290747637790    1.80178551289409
H           3.02575053146600   -1.13778810059373    3.43696842165091
H           2.08378009307340   -0.22217189655130    2.42747255693194
