    23
        -45.36586751  Gyration_radius:  2.44570900287 Dipole_moment: 1.603
 S          -1.23760612826630   -0.58349042049345   -0.35694623392192
O          -1.25189255737053    0.16396479336935    0.97567524369148
O          -0.83010189745560    0.32394332114884   -1.40573181142623
O          -0.44097025344084   -1.77510680456636   -0.26861750365886
O          -2.71000874753675   -0.96629429541759   -0.54749840439364
H          -3.16633367735291   -0.05744171996069   -0.66136373524816
O           2.62897545141622   -0.82430381092071    2.10797879226228
H           3.53905805088707   -0.52256329474035    2.12691626809527
O           1.79072653325772    0.84863662970801   -1.05073057988823
H           2.15748500342318   -0.04548703560595   -1.00831041341769
H           0.88236711204749    0.74278332924750   -1.38631734585957
O           0.96957089676483    1.16506279403483    1.43512654966415
H          -0.30732096731221    0.61538993304186    1.22043994673008
H           1.50439025281996    0.46552382804485    1.87690086481931
H           1.34839757345340    1.23065436233578    0.51969632853660
O           2.18024550971645   -1.86642166206000   -0.37398022853690
H           1.19555060648553   -1.87492783138502   -0.33861129809410
H           2.50920811868506   -1.29536968446227    1.26013629665809
H           2.43829259434765   -2.74231087298362   -0.66648246775225
N          -3.35121604217711    1.49807187885172   -0.83453380610728
H          -4.07517784260057    1.91887621532929   -1.40193813960043
H          -2.44960427566108    1.62051262803621   -1.28665803523866
H          -3.32403531412446    1.96029772946439    0.06484971268560
