    23
        -45.36586774  Gyration_radius:  2.44603222337 Dipole_moment: 1.618
 S           0.15054222059956    1.30812018473523    0.51477025907085
O          -0.42689092389247    0.46661968202096    1.53837337463940
O           1.44818837833369    0.67309661935222    0.01640412753611
O          -0.73440632697287    1.59382133056667   -0.57961404421725
O           0.63352421299747    2.62294652605959    1.13802023331967
H           1.19380613431566    2.30352122123730    1.93280869350656
O          -0.24936558259534   -1.42468501621105   -3.15460187138491
H          -0.59074080456088   -2.27588140542930   -3.43493400807627
O          -1.34485655778929   -1.76394929706927    0.33288433089803
H          -1.90260034923790   -1.38607896740426   -0.36135036622026
H          -1.14668718253939   -1.02721162078151    0.93863186744913
O           1.02778280113752   -1.62676966206076   -0.81062622301539
H           0.75299627480891   -1.53893480364876   -1.75251701262742
H           1.31668890603257   -0.32656813943723   -0.35505114850822
H           0.19329721977982   -1.86023499287364   -0.32608209573234
O          -2.25680938369062   -0.15868006822701   -1.80547095268646
H          -1.00347515713381   -0.93372049975981   -2.77347448644538
H          -1.70682506479910    0.53049574219327   -1.36557126086317
H          -2.99111972848096    0.30990842955834   -2.20617716682645
N           1.84833195332267    1.34045898681433    2.99400879387851
H           2.00872372578873    1.59450278063902    3.95986036289174
H           2.68664123646272    0.91643108483026    2.61896337425085
H           1.09325400810970    0.66279188489003    2.94074522915575
