    23
        -45.36528534  Gyration_radius:  2.383310323 Dipole_moment: 3.485
 S          -0.57129178573399    0.58346193872164    0.77190535525687
O           0.70266553076042    0.85109689360007    1.41223118908610
O          -0.49615110496413    0.89376567281772   -0.67512686867467
O          -1.03961110669494   -0.77547690512891    0.97877503318592
O          -1.64782570540180    1.53517446407034    1.35969140038406
H          -1.23660028226369    2.43366961654788    1.22166763929635
O           2.05418195472579   -1.83029935184203   -1.20466836754018
H           2.79094911752874   -1.23612693879247   -1.35759783712925
O          -1.91414689230174   -2.35189306979005   -0.88961090192466
H          -1.64832938166567   -1.84195205180016   -0.08249621595987
H          -2.83775753221868   -2.14572398096927   -1.04453769388848
O          -0.15312448492310   -1.02308840966261   -2.16552038901551
H          -0.30462071133004   -0.12786837760919   -1.55780330302977
H           0.75720603124099   -1.39398850604460   -1.85272442928459
H          -0.86256078979068   -1.66199904435270   -1.80356193048845
O           1.58402873401858   -1.63696618673471    1.35420115659026
H           0.73175795079018   -2.04257544819720    1.54238902093161
H           1.91178936508873   -1.84369978387225   -0.21512044311660
H           1.41488334679008   -0.67760061119193    1.47173516731493
N          -0.04780896847298    3.50414800418596    0.77544077732959
H           0.20390507222074    4.41150720440539    1.14617759557307
H          -0.04748988734397    3.55288778963868   -0.23531385299558
H           0.65595151993292    2.82354709201855    1.04986791809330
