    23
        -45.36528533  Gyration_radius:  2.38341569461 Dipole_moment: 3.484
 S           0.90388798750194    0.66741621083871   -0.00649318442978
O           1.00092728802535    0.43443105480600    1.42211609638346
O           0.76514785432655   -0.61813194362638   -0.73037617139600
O          -0.17259411319829    1.57374171453607   -0.36505675536860
O           2.22731501546190    1.30333907000890   -0.51089374002460
H           2.91245057776590    0.65280299310054   -0.19014595113555
O          -2.56228768208281   -1.27392862648941    0.91455917514653
H          -2.24628126753525   -1.98340510060038    1.47665853341982
O          -1.92762863148199    1.14209091444295   -2.22867769545759
H          -1.54171947273095    1.40282509504852   -3.06690438680961
H          -1.29847113250298    1.44861206500265   -1.52700337722176
O          -1.51352168103077   -1.23114700674350   -1.39751485888934
H          -1.81867398729262   -0.35484147155844   -1.82357663656065
H          -0.47639809574755   -1.01798860474725   -1.12789231804574
H          -2.00476592624833   -1.29976721621464   -0.49308016829329
O          -1.54352123238703    0.88727026838999    1.96217579345892
H          -2.26005779764637   -0.42447937950405    1.34671707552666
H          -0.58005779377973    0.70204809893188    1.94834942422160
H          -1.64477815612763    1.61092850544782    1.33577985222967
N           3.46908060609384   -0.68936515101382    0.61387523999065
H           2.73476823436365   -0.56819920131662    1.30662903949403
H           4.34651248537809   -0.86598317118840    1.08615368527416
H           3.23066692087126   -1.49826910755579    0.05460130846959
