    23
        -45.36528542  Gyration_radius:  2.38306639469 Dipole_moment: 3.488
 S           0.09275347947944    0.44415438439098   -1.02813965687156
O           1.21641868453429    0.05956840907949   -0.14199835089792
O          -0.58753986072567   -0.73794050574718   -1.52278681477564
O          -0.79571308351703    1.37262016496060   -0.35182890038393
O           0.72877653662742    1.20446303224430   -2.22298143324894
H           1.28156557339493    0.49598167334102   -2.65642167510647
O          -1.17245091045583   -1.45971069285656    2.34755561362884
H          -0.92956977867900   -2.36861411196568    2.16258653313343
O          -0.34121218612998    2.44982662284894    1.96601398034362
H           0.22190726285536    3.21457487710838    1.83311873351100
H          -0.61362249683773    2.14657485770537    1.06270332532425
O          -2.53984157735094   -0.71484815779763    0.25446589432769
H          -1.90870657705725   -0.86796698719473   -0.48116479690140
H          -1.77477476651584   -1.17802015621084    1.60085425431655
H          -2.63744189133504    0.24242223947444    0.27438653582067
O           0.76830394596406    0.17536537359025    2.26622184377317
H          -0.00362393026186   -0.49821993251357    2.38681246475555
H           1.03179512492663    0.10009258424548    1.20887602955816
H           0.34988086478631    1.10482620447499    2.32678146854990
N           1.88061076572008   -1.03770477370903   -2.87443427256099
H           0.99700664881929   -1.42035167340022   -2.54785789433818
H           2.56911530165827   -1.19884300841692   -2.15054604874786
H           2.16636289010586   -1.52825042364912   -3.71221681321930
