    23
        -45.38252908  Gyration_radius:  2.27578561343 Dipole_moment: 2.961
 S          -1.64811402812156   -0.35368506944793   -0.89622320596539
O          -1.08182940189797   -1.33529520088742   -1.81172225158787
O          -1.55944914147516   -0.80976899423204    0.48789937137193
O          -1.11576977929823    0.97790073018387   -1.08238658882838
O          -3.19207182678294   -0.26519917366476   -1.23884727755452
H          -3.46860398309043   -1.17631110883392   -1.23698802671703
O           1.32306976925990    1.24001581812647    1.74814520885024
H           1.68971533794457    1.75160687250497    2.47009272005344
O           0.88443417251519   -1.45949517297620    1.37889744968089
H          -0.07217694927513   -1.36717647455006    1.19154337151956
H           1.16355648154049   -0.57582713615622    1.67918035791006
O           1.54417116730476    1.31233951857307   -1.00399202324979
H           1.66864634009654   -0.25836315839006   -1.23068597849214
H           0.58185263848381    1.37161474360774   -1.16935758509240
H           1.63849003711954    1.42425171169565   -0.04117418392925
O          -1.26483341613990    1.60846644827743    1.51812127921668
H          -1.32513155946590    1.92501362880150    0.60525948853214
H          -1.51713798723024    0.67036586962521    1.42375990128422
H           0.34521347511117    1.43828454143381    1.73119743842966
N           1.44576685444251   -1.29911806565367   -1.17139035104222
H           0.46548721334503   -1.41386510725177   -1.55689947110163
H           1.37575703342723   -1.52922796346908   -0.13255622914384
H           2.11895756218913   -1.87652727733158   -1.66187339414931
