    23
        -45.38252892  Gyration_radius:  2.2758334747 Dipole_moment: 2.959
 S          -0.62458055860585    0.83954456217070   -1.59691583883409
O           0.49582012976089    1.49092226148314   -0.92437531247646
O          -0.16291896266267   -0.22156231710793   -2.48194754232052
O          -1.65685255529046    0.41208474937506   -0.67895371883967
O          -1.28609478503314    1.93787513824770   -2.52712375095470
H          -0.62190059399462    2.08900251187710   -3.19241160677578
O           0.27106200801368   -0.02197763262087    2.50379123801611
H           0.33519381591118    0.11779692975020    3.44914742484800
O           2.14019917585170   -0.09893487064699    0.47489657088408
H           1.71269875631727    0.59876382753986   -0.06274079386934
H           1.65929603047557   -0.08722719024097    1.32196331949281
O          -1.17786856233507   -1.71931625053597    0.87694799217149
H          -1.56858955015313   -1.00811202327818    0.33063893655678
H           0.00432865130407   -2.08574924460923   -0.12413157588789
H          -0.73612010435320   -1.25515842246701    1.61041017097242
O          -0.83594137797965    2.02802662806980    1.29645730274786
H          -1.59060843396725    1.60321463398527    0.86411446779951
H          -0.15783866946740    0.79652868541913    2.12705682379086
H          -0.19657349764828    2.10028173454215    0.56243273935132
N           0.81671433145992   -1.95946002391506   -0.80266879829963
H           1.20378719893807   -2.83895040103741   -1.12487888414951
H           1.53099943448299   -1.34750454841907   -0.30040293125455
H           0.44578812897940   -1.37008874758483   -1.60130624296860
