    23
        -45.38252913  Gyration_radius:  2.27579734194 Dipole_moment: 2.961
 S           0.55871011205317   -0.77844148399978   -1.65119094452369
O          -0.78863976168062   -1.11984255700543   -1.20420339293782
O           0.56762205201073    0.48088133120935   -2.38362721564605
O           1.53233780360962   -0.82739889989176   -0.58311519184270
O           0.98207497165996   -1.89849448484838   -2.68815140693881
H           0.40517091223658   -1.73934301882250   -3.42887938825282
O          -0.59932739289016   -0.22077229311650    2.43639013341010
H          -0.83420863809488   -0.45550927700803    3.33476689808597
O          -2.05471692880650    0.71438916063761    0.28611356384365
H          -1.72343493847968    0.43849182119505    1.15963921929593
H          -1.78670822175905   -0.00634647153654   -0.31999525516817
O           1.50727364170363    1.12223085002266    1.25851635243430
H           1.73746300999771    0.40138507369601    0.63859214268980
H           0.64289783502493    1.97484744035885    0.22900041965944
H           0.84812181669325    0.73194240382698    1.85990394169093
O          -0.00507873723678   -2.34016175642926    1.00773198832202
H           0.89413584665911   -2.12348760846502    0.72210265700811
H          -0.38889926484837   -1.07656806297220    1.96825159150940
H          -0.52929165527000   -2.10950902922023    0.21739403231096
N          -0.06650203237175    2.20482287595608   -0.53272436661423
H          -0.99497147472295    1.79287276716249   -0.20829902393008
H           0.21715016072351    1.63789882060706   -1.38179406581860
H          -0.12117910621482    3.19611237864781   -0.73642269859080
