    23
        -45.38252921  Gyration_radius:  2.27571033793 Dipole_moment: 2.968
 S           0.65611199513666    1.23513110553955    1.29909059208616
O           2.03134343014128    1.19814082218374    0.81959171424235
O          -0.24131320225916    1.78640453528877    0.28811992273964
O           0.19798758786900   -0.03236643949726    1.82366786820862
O           0.63663295073461    2.25037458539023    2.51478043434734
H           1.07275845243631    3.02037506708989    2.16286953059544
O          -1.88845352074132   -1.33438382425056   -0.99874179494684
H          -2.69789725679459   -1.75255956281032   -1.29415776382632
O          -0.23054933310435    0.57570575401035   -2.10369569449241
H          -0.28367976506436    1.18813652781454   -1.34152526722953
H          -0.90023420779239   -0.10714543461092   -1.91902521254852
O           0.40277767384078   -2.20993330275935    0.27065794566504
H          -0.44244065151035   -2.11654132024311   -0.20413971376296
H           1.44092971056670   -1.38513420232889   -0.61033693585608
H           0.34806537089901   -1.56754772278629    1.00627890582424
O          -2.32446369875548    0.31595751003371    0.99419829777803
H          -1.73404712015200   -0.05296338706214    1.66718289836766
H          -1.79999948444860    1.06567768689705    0.65511469415853
H          -2.14260036945262   -0.73054135474833   -0.24599856969070
N           1.90294260109757   -0.55986967165069   -1.10207366626583
H           2.72871576167316   -0.82372604991812   -1.62708052283555
H           2.12023469158018    0.15080393854007   -0.34675485604924
H           1.14717838410260   -0.11399524012684   -1.70802279651906
