    23
        -45.38252895  Gyration_radius:  2.2758215946 Dipole_moment: 2.958
 S           1.51850074862309   -1.07023304420668    0.44004300781323
O           2.25720808634226   -0.73907206422923   -0.77116478825880
O           1.30460409634834    0.11314619731896    1.26814671843681
O           0.29845486640644   -1.80340250902220    0.18526903551046
O           2.45047831487176   -2.03872451873230    1.27826604406989
H           3.28103012343268   -1.57360849658929    1.30443634486429
O          -2.29945057965756    0.87198685802251    0.54297529172996
H          -3.14694896860975    1.15084464560791    0.89132444254585
O           0.08259706968342    2.19103420772622    0.09400316262875
H          -0.83891104276254    1.93127901595482    0.27372146124614
H           0.62267848030628    1.58174657532009    0.63777561266310
O          -1.02655849474809   -0.68406827640169    2.22940585437914
H          -0.89921757309040   -1.47746736705732    1.68974761077790
H          -0.15380362672752   -0.25193520450299    2.16312390626500
H          -1.88730260954422    0.28881512873155    1.24003617487909
O          -1.48221394242595   -0.76171948447300   -1.52856314750867
H          -1.96672008885265   -0.20108408112886   -0.89654584395781
H          -0.30673877399216    0.17120116527445   -2.05959381212300
H          -0.92190545734825   -1.33884305555977   -0.97186162246665
N           0.56905467893898    0.77888052131043   -2.05410568902409
H           0.40324756364484    1.53257172406229   -1.31827479663978
H           0.79385152510214    1.15749622754471   -2.96694297186038
H           1.34806558406528    0.17115584504030   -1.67122197597421
