    23
        -45.38252917  Gyration_radius:  2.27573753803 Dipole_moment: 2.957
 S          -0.70494367393159    1.46264390205865    1.00386561971293
O          -0.39000248781480    2.46695490591217   -0.00340724472348
O          -1.68075341974939    0.49936775374338    0.50236268145975
O           0.46654726506831    0.83079660526015    1.56911191252776
O          -1.41044549363338    2.23358452920114    2.19429943517131
H          -2.08620688701184    2.74138108331344    1.75582046164284
O           0.52007692667114   -2.45367364753612   -0.22937716920560
H           0.62868491067316   -3.40463589897517   -0.19353135048024
O          -1.04355403241164   -0.77738190133570   -1.76723085669041
H          -1.47363863497970   -0.33740609740978   -1.00553376153812
H          -0.55017959940397   -1.52096297910824   -1.37677170691818
O          -0.73261982182387   -1.54373620545606    1.88916500201617
H           0.04015673897264   -2.19417939821516    0.60623796584203
H          -0.08182663659175   -0.91317868326924    2.22999378951975
H          -1.35773642728613   -0.95673934578075    1.42315838294786
O           2.24039989558256   -0.29782977983358   -0.09677931255398
H           1.57034332658933    0.55751550771072   -1.25989146343777
H           1.77659329982187    0.14158136418613    0.64390446224449
H           1.81883236490892   -1.17283889170793   -0.16973684357989
N           0.82158830322146    1.05640799980964   -1.83170428607220
H           0.06769352049147    0.32961981502284   -2.03268054977858
H           1.18819905022385    1.49095819336505   -2.67069235037981
H           0.37279151240671    1.76175118904671   -1.18058283772910
