    23
        -45.38252923  Gyration_radius:  2.2757445954 Dipole_moment: 2.966
 S           0.63320011300475   -0.76748719030783   -1.62911845747922
O           1.51887787570134    0.20211293011134   -0.99119365938770
O           0.82165764948822   -2.10017236184616   -1.07154848456812
O          -0.74869017974866   -0.34123103747676   -1.64054682336552
O           1.08286422253711   -0.85267742101367   -3.14551759467613
H           1.93977167702420   -1.26493204850420   -3.09594978882921
O          -0.87240719618324    1.97300545523023    1.30045139743286
H          -1.15658133315737    2.80713320368305    1.67571689075291
O           1.35720248499722    0.39075725230159    1.67809252939160
H           0.64154203172533    1.04958565319224    1.72962589471123
H           1.61570956181061    0.37821442234364    0.73374065141892
O          -0.15856491560440    2.23608502920791   -1.21096645822197
H          -0.75149968254860    1.59973462413722   -1.63635164208859
H          -0.62284528137203    2.16167321061513    0.35285292986523
H           0.67503498380207    1.73142949363121   -1.15895435245909
O          -2.12567814357831   -0.40378247548666    0.66040050722025
H          -0.99525774966117   -1.37636138824448    1.21762544251673
H          -1.87182392654279    0.47538460398827    0.99368365107571
H          -1.82889544054971   -0.41274397018112   -0.27163588753604
N          -0.03210407456906   -1.80527619930023    1.37472443775468
H          -0.04673187930134   -2.58480960449274    2.02223235749902
H           0.59962519970860   -1.00798991179684    1.69451775194424
H           0.32559399301576   -2.08765227979364    0.41811870702787
