    23
        -45.38252906  Gyration_radius:  2.27578135195 Dipole_moment: 2.959
 S          -1.34583027034028   -1.28581405587940   -0.42439082719583
O          -0.52562743230268   -1.57764653629804    0.74774237758568
O          -2.46144136792577   -0.41341693709303   -0.08277708276837
O          -0.56885374494033   -0.81001065312619   -1.54732348628114
O          -1.98192578042712   -2.66373264882943   -0.87805544939479
H          -2.58585942309981   -2.86864972928454   -0.17091872874794
O           2.42346008807567    0.66828574194515    0.15345674218517
H           3.37461534628330    0.77235566591852    0.19609597362690
O           0.45206097195275    0.53390315160861    2.07975892666098
H           0.09920673678001   -0.32964456178308    1.78242190468903
H           1.27233504199392    0.65479374644595    1.56840527095413
O           0.41837615156786    1.68189791840049   -1.45285039622019
H           1.24685398080368    1.48177097363635   -0.98159457388654
H           0.06110040203790    0.80878567473282   -1.71160896768756
H          -0.63338035378446    1.96942800629942   -0.29296512964364
O           1.74898573174672   -1.75621252494367   -0.58979128158347
H           1.21818436958537   -1.56710629994083   -1.37690149908859
H           2.25636020305300   -0.27223118522638   -0.13530650342262
H           1.06137224813409   -1.90741502093877    0.08626150632795
N          -1.25376827306703    1.80705690055162    0.55854324357635
H          -1.77966271393272    2.63049407074845    0.82787886843559
H          -0.61091018108974    1.45042379664838    1.33092124347714
H          -1.88565171110207    0.99268448640011    0.31299784841354
