    23
        -45.38252921  Gyration_radius:  2.27570558499 Dipole_moment: 2.964
 S           1.14591263495833   -1.46349501373022   -0.43480707449202
O          -0.00539256118466   -1.26873176141903   -1.31119913788404
O           2.26593553119701   -0.62551000281191   -0.84193981038955
O           0.81203065777918   -1.33287748331351    0.96621869932971
O           1.61469607574943   -2.96252245701825   -0.64023513232507
H           1.95135064647202   -2.96581607881322   -1.53084013372918
O          -2.20253671002668    0.88474411549155    0.84243105971612
H          -3.09081535597597    1.07786269262082    1.14412756722767
O          -0.90171798347235    1.24519511531001   -1.56486064901217
H          -0.64746661378962    0.30522433039895   -1.66766917094868
H          -1.51121546007470    1.25451833151741   -0.80505011314140
O          -1.81260465037825   -1.69611635555481    0.57287626022776
H          -1.05477080923613   -1.82823262764766    1.16085863081827
H          -2.14039940575093   -0.10853535382179    0.76895668755391
H          -1.38510376106192   -1.66835628422155   -0.30392144020725
O           0.32080724711821    1.11739242401374    1.94048672986024
H          -0.62785265479503    1.16087526923313    1.72439118537629
H           0.56648262397616    0.18122479932120    1.79877807747177
H           1.04519462532234    1.69094283623332    0.64414720885918
N           1.36428962355059    1.77528843388171   -0.36944888236306
H           0.47813653965736    1.75861101553823   -0.96232155125446
H           1.87609866699791    0.87512616467005   -0.59425173563184
H           1.93894110295855    2.59318789012500   -0.53672728505359
