    23
        -45.38252900  Gyration_radius:  2.27583498852 Dipole_moment: 2.959
 S           1.01319467483841    1.54861201630747   -0.46933944221001
O           0.23481975519519    0.94016624297083   -1.54440988797151
O           0.19996402352905    2.46925559420771    0.31386892224032
O           1.71261897650880    0.57308385749319    0.33700249651926
O           2.12986129377748    2.42732837067795   -1.16934779293555
H           1.63175386351149    3.13080684547923   -1.57420189038800
O          -0.40209470028393   -2.48246741539551   -0.13928691142851
H          -0.45713768485394   -3.42314844190681   -0.31082884853110
O          -2.00588490328007   -0.34248760404603   -0.82111242038557
H          -1.29315798834802    0.16229711011381   -1.26364121853682
H          -1.61576238444408   -1.21740455738153   -0.64440767288948
O           0.28891925691755   -0.93250857088326    2.03989620172106
H           0.97457125882914   -0.41727449191117    1.56941935096983
H          -0.87625386483207    0.14200084206787    1.89154898621659
H           0.04186807263319   -1.64170671674472    1.41980096296327
O           1.53543659925644   -1.36233916242017   -1.50923992227134
H           0.35358372729619   -2.13952230993580   -0.69353972918493
H           1.03074818841909   -0.59173144378602   -1.83206527085921
H           2.06380469735316   -0.97255400308714   -0.79799285780502
N          -1.51804531347374    0.86757871135126    1.44665636225815
H          -2.22023953992061    1.22044640831209    2.08661928038708
H          -1.93569390892632    0.40451271985552    0.58169493175989
H          -0.88687408968617    1.63705598866858    1.08290636034502
