    23
        -45.38252915  Gyration_radius:  2.27579002339 Dipole_moment: 2.957
 S          -1.27562406336141   -0.31940871959392   -1.38393976850204
O          -1.57514854106615    0.78618631195473   -0.47870208460360
O          -0.39524354701140    0.10699039088865   -2.46354516883573
O          -0.80400234520989   -1.49811771372237   -0.69160932847764
O          -2.64803598353716   -0.72402088324245   -2.06356013055200
H          -2.84806529692875    0.02601597523574   -2.61508748903921
O           0.65050391026183   -0.03379075407807    2.43317075036158
H           0.74931744921203   -0.07101413538819    3.38514655403061
O           0.52760344370113    2.03938134301078    0.61441059046668
H          -0.33288182233548    1.76915718335742    0.23324745008739
H           0.64308272031215    1.46758848920393    1.39442494324170
O           1.68073966176504   -1.48015362200307    0.31840675276109
H           0.81071188398486   -1.71123885174434   -0.06436344685865
H           1.97427085994741   -0.24279933153446   -0.63880210962489
H           1.47339252398777   -1.07341044772418    1.17877414309724
O          -1.76857860771844   -0.72269267174893    1.68514212803090
H          -0.28863441233240   -0.30851872681713    2.23734801776832
H          -1.91703237230202    0.00554263672148    1.05254524820233
H          -1.57344977807421   -1.46455627832685    1.09456786819088
N           1.81548337297835    0.65384715092924   -1.19315588435946
H           1.45302058312149    1.37430157778122   -0.49568383136943
H           1.00609984313878    0.45727446644111   -1.84820603328415
H           2.64247052746486    0.96343662039654   -1.69052917071460
