    23
        -45.38252895  Gyration_radius:  2.27582481763 Dipole_moment: 2.956
 S           1.32990906527210   -0.22352079585703   -1.35136435072543
O           0.00547510536532    0.18085939634712   -1.81417831436676
O           2.11892850600836    0.92982366458973   -0.93939318494051
O           1.27954930792784   -1.26949003551553   -0.35424276245192
O           2.07089570593870   -0.84341409727233   -2.60661948188981
H           2.20046442478206   -0.09147028798316   -3.17628191892323
O          -2.11693920481814   -0.75161199998414    1.13869967091205
H          -2.94202098720951   -1.12669052158081    1.44840920563929
O          -1.46989732696835    1.62607375150936   -0.10452035768355
H          -1.89149476157204    0.88993079515036    0.37422882782975
H          -1.03716505122080    1.20541897758956   -0.87551732580380
O          -1.21944673417139   -2.01031904221694   -0.98171950096188
H          -1.84860686976137   -1.28485087796460    0.33901268545184
H          -0.99739994087708   -1.22051173993198   -1.51059230257917
H          -0.34796839926596   -2.29631361777761   -0.67247858240165
O           0.46191604205522   -0.63623273671308    2.12050133372970
H           0.74706125102141    0.88291445096659    1.74005848104218
H          -0.49559925820160   -0.74340380449723    1.97829785357300
H           0.87763662164921   -1.02849056245425    1.32665075307828
N           0.81744239250870    1.77268504707509    1.15718560105090
H           1.14334806934416    2.57050263409109    1.69049702317627
H          -0.14658210665986    1.92314212184596    0.72699865001583
H           1.46049412887161    1.54496927057187    0.34636799722571
