    23
        -45.36629893  Gyration_radius:  2.3643390095 Dipole_moment: 2.439
 S          -0.12675890374407    1.71883732970287    0.61438762852855
O          -0.59913249477859    1.34796942928061   -0.71753155954188
O          -1.20694735235233    1.97998308881057    1.53244246310200
O           0.88050121153773    0.79015784937725    1.09570075015837
O           0.64053671068846    3.10287855550613    0.43271018948596
H          -0.08012847634421    3.72154419887040    0.48378791452662
O          -0.77351262219664   -2.20462327049714   -1.38531541200586
H          -1.70668480572093   -2.02311317149602   -1.51632523872001
O          -2.72933481017075   -0.18338916510407    1.49152793492511
H          -3.18338387651410   -0.18600598048216    2.33643804047287
H          -2.24225857809316    0.66837317396618    1.45367262731920
O          -0.44767240754885   -1.55510823744193    1.11163865271289
H          -1.34755133715341   -1.22576695358486    1.31286379236227
H          -0.61165503906551   -2.06705992708401   -0.40601641357882
H           0.11811056450500   -0.76597505214882    1.18792429724952
O           0.63752211997743   -0.25472381971405   -2.17436875751005
H           0.07728503299280   -1.09785571288161   -1.98039247484617
H           0.12957603047281    0.47826270284095   -1.64843275234029
H           1.55918167759374   -0.38452310190471   -1.58953083616178
N           2.60298858336674   -0.47052306418161   -0.62351977899262
H           2.78718296370342   -1.41419210424013   -0.30760918347946
H           2.14231665140270    0.04279051434719    0.14013143432771
H           3.47981916743439   -0.01793728193915   -0.84418332798408
