    23
        -45.38252924  Gyration_radius:  2.27572320571 Dipole_moment: 2.965
 S           1.59200279146316   -0.94351445381139    0.46830908872309
O           1.95148721268574   -0.04462047267880    1.55698096796328
O           0.33451258766737   -1.63173652539351    0.74498164415407
O           1.60819480803380   -0.30651912768642   -0.82991934136926
O           2.71314867749741   -2.06169706390017    0.42676743106741
H           2.76224929129276   -2.35520421943443    1.33136745156462
O          -2.03751337516318    0.27567088590979   -1.45490502940285
H          -2.78235180930863    0.23795346355912   -2.05586279119134
O          -1.78645176794003   -0.07847435289803    1.27060249325473
H          -1.10905194461466   -0.78241909383485    1.20463576694156
H          -2.09183094809069    0.05701851695781    0.35557190381465
O           0.16074898043411    1.92463350390744   -1.17784169061031
H          -0.68500422536104    1.50182900302206   -1.41117040518357
H           0.11420578111972    2.04607926179191    0.40875927924555
H           0.81926653169047    1.20217976076229   -1.21356685865162
O          -0.42375620406759   -1.76685390365294   -1.78593368573572
H          -0.31513311118258   -1.99595815226827   -0.84359144471533
H          -1.47991224395793   -0.52918448780321   -1.64762081470726
H           0.40888474667229   -1.31173715506014   -1.97845269583492
N           0.07047126627455    1.75725876154688    1.43393341191652
H          -0.78845417864461    1.13276227237722    1.53033584857767
H           0.05998010130691    2.54797848083341    2.06782260220272
H           0.90430704219088    1.12455509775523    1.59879686797679
