    23
        -45.38252909  Gyration_radius:  2.2757909097 Dipole_moment: 2.960
 S          -0.58169973640031    1.69633618684045   -0.65482984904424
O          -1.83102251305211    1.19222771536856   -1.20930450765592
O          -0.54936826197696    1.54508968139079    0.79701531278819
O           0.59268452850868    1.15352521792638   -1.30080169865282
O          -0.56474538445574    3.25406348056780   -0.94162362781208
H          -1.41354170648738    3.54417194715074   -0.62184820111373
O           1.71190195891649   -1.42847195009778    1.17169669951175
H           2.42406156812528   -1.83844243470994    1.66373367127629
O          -0.93966508963923   -0.92987098533705    1.75138384970866
H          -0.88518624173940    0.03337175875569    1.58456085976683
H          -0.01583942458749   -1.23775710238431    1.72496953766949
O           0.85027792371012   -1.51178416809143   -1.45125620687485
H           0.88079560298949   -0.54338276660131   -1.58620896534986
H           1.27565363559320   -1.65591003291314   -0.58711022704302
H          -0.70856629154500   -1.60045254356663   -1.14105451366754
O           2.06363345283999    1.16154329256731    0.93972172608092
H           1.15633241539873    1.43256835750652    1.17644920667357
H           1.92382415653845   -0.45420430263014    1.12984505540520
H           2.05846305285725    1.26297002768470   -0.02296544094209
N          -1.66147913492189   -1.36462202940759   -0.72551141901317
H          -2.39105452783066   -2.00316535914136   -1.02069335876938
H          -1.86803936504496   -0.36454617412583   -1.00828299729930
H          -1.52742063780501   -1.34325780674364    0.33211509436420
