    23
        -45.38252919  Gyration_radius:  2.27574441127 Dipole_moment: 2.963
 S           1.47591274997559   -0.40158000711589    1.14214069408087
O           0.59477761058789    0.67406326652397    1.58733884972878
O           0.96517973053184   -1.70383557685930    1.54929569974408
O           1.78721713914673   -0.32321853316620   -0.26789670294006
O           2.84694198576880   -0.20217299240429    1.90998356210066
H           2.62118562396950   -0.39851436568678    2.81410714413601
O          -1.16850184577799    1.54264010475559   -1.61197385669972
H          -1.51344664237342    2.23539169824788   -2.17633050032435
O          -1.96901164994817    0.51304502735027    0.82009790727905
H          -1.11244213181403    0.67112330938187    1.26736005910259
H          -1.88810049471173    0.96933720198931   -0.03674609417320
O          -0.12035588258855   -0.97708465448943   -2.03647158297729
H          -0.55245359292701   -0.10639432845721   -2.09730278218057
H           0.71532989357326   -0.80815388525751   -1.55694359378106
H          -0.87147548829866   -1.70506117321980   -0.83643568578385
O           1.08703444659905    2.25469461141359   -0.47574982814671
H          -0.31791002372300    1.89279742158818   -1.22499862818915
H           0.87039227196528    1.96060240065515    0.42926498208635
H           1.67624425128345    1.54926337196585   -0.77991129912666
N          -1.22560950815507   -1.90396459301960    0.14912485961095
H          -0.36516183950603   -1.98086137678268    0.76271285324286
H          -1.80694477455603   -2.73251311972646    0.20116825522894
H          -1.72880181901620   -1.01960381768768    0.46816568796748
