    23
        -45.36831503  Gyration_radius:  2.34497875502 Dipole_moment: 5.176
 S          -1.77491719340857    0.08370355742855   -0.05600945837744
O          -1.08689197820227   -1.19675713280140   -0.15702916944933
O          -2.45511293522355    0.22728108247943    1.22840055333508
O          -0.91419368745621    1.21068983019158   -0.33392028226843
O          -2.89825136382330    0.08101019001595   -1.16997521990971
H          -3.46336620543700   -0.65782037943152   -0.95969356277891
O           2.76186402342125   -0.11832660991913   -0.12822351276501
H           3.47734446405930    0.50787535963565   -0.01766378240569
O           0.20014198590138   -1.72560382667277   -2.44878907036946
H           0.88109614640751   -2.35569414871214   -2.20403369278401
H          -0.34007098142645   -1.58999975265076   -1.64551969814605
O           0.90288613371358   -0.85755176644690    1.60102167767749
H           0.29419454198905    0.38699158141354    2.09565674320870
H           0.20296730848981   -1.16894168228962    0.99017008822406
H           1.67258115780662   -0.64307497255564    1.01885560314561
O           1.16708936960251    0.78091768130526   -2.00328579913442
H           0.87521739105643   -0.04835337997221   -2.42747069175846
H           0.39734040904169    1.06974676706367   -1.48046147909367
H           2.20541932461538    0.22656551483984   -0.88083337757175
N          -0.34923961544318    1.27214891944182    2.25915128118789
H          -0.25648546143460    1.69706961434853    3.17587180797356
H          -1.32867093039080    0.89388780675875    2.05147458003648
H          -0.17094190386119    1.92423576654477    1.49230647202650
