    23
        -45.36831498  Gyration_radius:  2.3449597548 Dipole_moment: 5.169
 S          -1.04824733383289    1.11253077958831    0.90772415156257
O           0.38963358545483    1.08613730678802    1.14228746252559
O          -1.45568644008841    2.32924391542165    0.21024965024415
O          -1.53341806901328   -0.07399511611243    0.24056228161377
O          -1.73657535164753    1.14970256944979    2.33166604172733
H          -1.41521720336697    1.94462986503176    2.74912190450533
O           1.60653485407744   -1.87292942643976   -1.25288010064819
H           1.48487970345617   -2.52105690809821   -1.94671519722670
O           1.38407232561374   -1.02727954357878    2.45872308729171
H           2.29938573957334   -1.07996177418204    2.17579424634705
H           1.02816300992351   -0.20793744588454    2.06191642160615
O           1.31683050026790    0.75383168066720   -1.34669045793923
H          -0.02143147370773    0.99212890635438   -1.90922821437307
H           1.15119910583657    0.94993150536155   -0.40111155046348
H           1.52205435717585   -0.21283585067312   -1.37448760500996
O          -0.14283758818015   -2.35696847829815    0.63743727242515
H           0.35930892943306   -2.11232783960115    1.43794376291315
H          -0.77148522978103   -1.62324842864141    0.51194762964615
H           0.96371720943599   -2.11662605486004   -0.53010683593431
N          -1.10144048692215    1.18099893119593   -2.05798572884228
H          -1.33777716077054    1.84728165041826   -1.25451843322297
H          -1.59721532379809    0.32038636414660   -1.81564319020098
H          -1.34444765912239    1.53836340194528   -2.97600659854011
