    23
        -45.36831503  Gyration_radius:  2.34497268557 Dipole_moment: 5.172
 S          -1.29406497929278   -0.12499684831547   -1.21268248251043
O          -1.20651642306303   -1.25318168380261   -2.13597140947234
O          -1.51225322686292   -0.57042162706357    0.15741740714188
O          -0.16125845487109    0.76252327113426   -1.34426920889257
O          -2.57556576406654    0.70540707972234   -1.62618277632123
H          -3.30773539246057    0.09943950104370   -1.54758386357790
O           1.93390014545678    0.38699237652671    1.94134234726012
H           2.84557328025699    0.67867518160814    1.94747582016131
O          -1.76117947667448    1.31998850585990    2.04225251670873
H          -1.76674890831986    0.62263710159675    1.35732048210656
H          -1.49678656442922    0.88641027310610    2.85633289146473
O           0.85075270572756   -1.69422979306803    0.72156639973306
H          -0.08072343252925   -1.39796276705823    0.65385030725093
H           1.26665945348648   -1.59788101028938   -0.68623146644627
H           1.30359666281322   -0.99285118646676    1.25104158686879
O           0.48240700889768    2.25543993644460    0.81445850040828
H           0.27621100743472    1.84784777572231   -0.04614527803267
H          -0.34998580565474    2.18962679944770    1.32003098391705
H           1.40473281871094    1.13931179054721    1.55533157252487
N           1.33058413056412   -1.39106963228470   -1.77129516932499
H           1.99587585347400   -1.97056458332925   -2.27239969318679
H           1.50495054817838   -0.38969730574792   -1.88071656855170
H           0.31757481322544   -1.51144315533112   -2.09494286923050
