    23
        -45.36831503  Gyration_radius:  2.34497647641 Dipole_moment: 5.176
 S           0.32238459746706    1.54786430279310   -0.81277131587348
O           1.67395077760895    1.73395884991993   -1.33394954941032
O          -0.37590271912238    0.47405406910682   -1.50738761933381
O           0.32082085133821    1.38622375543684    0.62321136640121
O          -0.47432511436493    2.87880500800097   -1.12366676544353
H          -0.44767846624773    2.97569429780425   -2.07200556220718
O          -0.69297671943615   -2.32890122520028    1.32451765128015
H          -0.49876145014547   -2.71030370566112    2.18071664296031
O          -2.90253473119054   -0.03252765766315   -0.76725099299380
H          -2.01816632109745    0.19942894426059   -1.11300950205365
H          -3.04458136550033   -0.95129777358767   -1.00453056959123
O           0.96356230798986   -1.67037727245303   -0.62861911869028
H           0.42821049886828   -0.99814529381842   -1.09925080579075
H           1.99096316819658   -0.81481334255624   -0.01502458309972
H           0.36538509650423   -2.02736898486779    0.07287423867557
O          -1.75672222912874    0.03616462072408    1.70226377400213
H          -1.02625191288706    0.62204515298449    1.43311807595628
H          -2.39276006685636    0.08590734760093    0.96348484247600
H          -1.14201934896384   -1.45666604534442    1.50499652782813
N           2.59118496300589    0.03622264464563    0.35876361419286
H           2.45136059792418    0.77609284150707   -0.40185523640291
H           3.56363343689693   -0.18419963026374    0.54663488482602
H           2.10122412914521    0.42213911662556    1.16873998229119
