    23
        -45.36406413  Gyration_radius:  2.38349338996 Dipole_moment: 2.252
 S          -0.53589641381312   -0.90989991568916   -0.57740271801545
O          -0.63515107803355    0.55285344634933   -0.60298799217180
O           0.74508782736216   -1.35813046383980   -1.09039017246516
O          -0.81021463643187   -1.42177857894055    0.76793497287380
O          -1.67198772974762   -1.46755421220913   -1.48083074083577
H          -1.39436584674450   -1.16398996312146   -2.38706092671206
O           1.95411434752137    0.10657486057458    2.62654685636276
H           2.35768058313734   -0.75807701041511    2.72493726367383
O          -1.39499448689939    1.96564668857506    1.41155656989933
H          -2.34472438937724    2.08209184128662    1.34886234884791
H          -1.11657362275187    1.49890736774981    0.57492522126089
O           2.05052180004641    0.61076065051035    0.06570224477457
H           1.75964780259305   -0.21131655953921   -0.38523453570899
H           1.35009011084346    1.23823469496945   -0.14501911973907
H           2.07981645606594    0.36304693484831    1.66959911364046
O          -0.56783646964790   -0.00713841762630    2.76979506179206
H          -0.91385311432587    0.87821932522928    2.38058632667784
H          -0.72188950610011   -0.68293139822981    1.95716732310650
H           0.46545213103680    0.07204005072059    2.82211323155480
N          -0.38691797200357   -0.46152767893582   -3.52527505839902
H          -0.44248339425679    0.54549134224944   -3.44361117362524
H          -0.24137284249802   -0.69961805782505   -4.49806619316547
H           0.41585043405078   -0.77190495667926   -2.98384789362126
