    23
        -45.36831504  Gyration_radius:  2.34498373598 Dipole_moment: 5.176
 S          -0.47049831984093   -0.30591495502060   -1.68685709637658
O           0.12514245310845   -1.47933018047642   -2.32035371454777
O          -1.35239023061510   -0.68021279473321   -0.58898572271502
O           0.53247409923219    0.66025395349306   -1.30122910729852
O          -1.37982598480498    0.39021248464908   -2.77833970008954
H          -2.02257345466273   -0.26739378192722   -3.03106944074516
O           0.62828631350357    0.66477981595365    2.61183726458772
H           1.39280771427416    1.02906276319290    3.05800658813282
O          -2.61237793549817    1.29937092120391    0.70793418845205
H          -2.79341446496226    0.94089721764411    1.57933475107992
H          -2.23612356486919    0.56197753021768    0.18817833096053
O           0.41325140292248   -1.57035548793526    1.21522135412903
H           1.49599787394108   -1.53011974846718    0.22019849550579
H           0.49921694581504   -0.80242931212449    1.83185681080382
H          -0.35769739078043   -1.35559359255317    0.64997883781075
O          -0.09366313267449    2.33462945565711    0.72551489019822
H           0.19224687603970    1.85789561452717   -0.07464533826619
H          -1.06449286472542    2.23351513652146    0.73457364236115
H           0.34961261922416    1.34590200047371    1.93847817557092
N           2.10684491630164   -1.38833765518069   -0.69140042683840
H           2.95558613154334   -1.94360919643422   -0.72054759580169
H           2.27736192780106   -0.38531859863013   -0.79097096455395
H           1.41422807973409   -1.60988160005251   -1.47671424235517
