    23
        -45.36831503  Gyration_radius:  2.34498289959 Dipole_moment: 5.176
 S           1.57056090056229   -0.28787696117699    0.78165658088637
O           1.62460030343921   -0.06304175929016    2.22370970474072
O           0.69147436160757   -1.40041829665090    0.44606956882816
O           1.24727572173372    0.92372247373866    0.06355333548072
O           3.02647040266712   -0.71175804563475    0.33059801310924
H           3.22673750467943   -1.50131370368382    0.82651957070725
O          -2.34565824697599    0.42176880198441   -1.40658028620333
H          -2.84608191218321    1.18909703347439   -1.68415091148854
O           0.46107303752092   -2.04947117414854   -2.14505985883690
H           0.60542418890998   -1.88794774012906   -1.19188760435795
H          -0.39560422958741   -2.47632236531746   -2.21229217196773
O          -1.70537636802793   -0.36475272756628    1.03556495522386
H          -1.07761987205895    0.79791554081112    1.68222927270012
H          -2.05338209013918   -0.10414366526237    0.14769765172286
H          -0.91553046712018   -0.91284614052807    0.84655882885090
O           0.08574114278656    0.63920065655406   -2.35991474176584
H           0.59085561550271    0.85312657425679   -1.55470028381018
H           0.30812073480136   -0.29293704581500   -2.54561705135253
H          -1.44576730643604    0.51049242445840   -1.82767915782079
N          -0.36718939394628    1.54935266710414    2.07577202541077
H           0.46715389415040    0.95058208266594    2.37716791008294
H          -0.74128184400983    2.13738838616781    2.81320409388242
H          -0.01199605787752    2.08018298398917    1.27758055597814
