    23
        -45.37662522  Gyration_radius:  2.35449902421 Dipole_moment: 4.508
 S          -1.02240656506113   -1.13295684344366   -1.13256311197601
O          -2.30698374001129   -0.79259087308668   -1.67142789050264
O           0.07711840688767   -0.28527633827755   -1.60821053539291
O          -0.97646525370553   -1.24016470086115    0.32018683828844
O          -0.68523625343473   -2.59071253960198   -1.68358190622057
H          -1.48918726452762   -2.82691035699491   -2.13484588564872
O           1.26754883744529    2.17616966158074    1.29564309174656
H           1.19856433956089    2.98593469216977    0.78684858629311
O          -1.60425859634740    1.81641019330894   -1.34066747037041
H          -0.83577085743391    1.29282080301506   -1.61467599842899
H          -2.34480034568616    1.22981307229436   -1.54089734584107
O           1.10595643836650   -1.94816112420486    1.72783961973831
H           0.26919705739972   -1.85275351980560    1.21326251982526
H           1.85084723574740   -0.81871411407474    0.80548186427073
H           0.88239757056400   -1.71058939436735    2.63032023843883
O          -1.17751396708049    1.27952625671202    1.27053726013505
H          -1.47512734489851    1.68315110609767    0.43009832497248
H          -1.17955007845792    0.32323087681754    1.08554845754949
H           0.32521570607783    1.86408272723151    1.42435580639233
N           2.02614650954395   -0.05302255832213    0.10402245694306
H           1.28473389631857   -0.16883503832043   -0.65272436206058
H           2.95867405092810   -0.11277243067119   -0.28904574531158
H           1.85090020777541    0.88232046281026    0.57449519713837
