    23
        -45.36406416  Gyration_radius:  2.38345114804 Dipole_moment: 2.254
 S           1.05657709247343    0.41394484511047   -0.40109710220578
O           0.41792213967807    1.62768002217876   -0.87437124585741
O           0.51605291337416    0.00195080584857    0.89821155154969
O           0.96297160592418   -0.68200096846143   -1.36930370563530
O           2.57676292656783    0.67801694534479   -0.20813109048697
H           2.58214742013152    1.47617843999118    0.38644880281090
O          -2.67383159443503   -1.09503389929780   -1.54265562593858
H          -2.66526850438614   -0.73405965197804   -2.43139007564911
O          -0.28326961721345   -2.39052166563483    1.41628559312097
H           0.45950043560731   -2.87847975899243    1.77640984083042
H           0.02716122315661   -1.44786904114410    1.31372996891407
O          -1.94909292796008    0.88474669162983   -0.00093361865261
H          -1.56930118816033    0.51678114914570    0.80474307290998
H          -1.17907730069930    1.30531985636067   -0.44133088456140
H          -2.50493480131579   -0.32492828518753   -0.92977677761153
O          -0.64178787973364   -2.52946906210843   -1.08824185101211
H          -0.58907244713064   -2.63081496419830   -0.06739858239904
H          -1.53284280733643   -2.03951243794987   -1.29519002580169
H           0.09855920962511   -1.78305395938414   -1.27640580139032
N           1.91782186614793    2.74780233222803    1.24942082865828
H           1.18620033557811    2.82214419289895    0.54721522919137
H           2.29107661111333    3.66968804938358    1.43657270208058
H           1.49572529897062    2.39149036422431    2.09718879710821
