    23
        -45.36406418  Gyration_radius:  2.38349037991 Dipole_moment: 2.252
 S          -0.60966525035916   -0.94355623561789   -0.43143058346902
O          -0.28722535273425    0.40457738390076   -0.90987188475962
O           0.58025445477756   -1.76922232766916   -0.34689462946815
O          -1.33765841453501   -0.87911484018210    0.83854361714495
O          -1.59794183894565   -1.57421526340268   -1.45298944191936
H          -1.03242820073073   -1.67263538805193   -2.26614909237416
O           1.19696297222342    0.68726391701260    2.97032200827520
H           1.30545099436248   -0.14241963290896    3.43936924522097
O          -1.09018873083776    2.55911776751650    0.24879851421367
H          -1.92309146425500    2.81629324001511   -0.15078123472195
H          -0.75766924256870    1.78037472070641   -0.27903054741894
O           2.05719326695499    0.21377514353348    0.54988366860697
H           1.66874590253158   -0.64850655968574    0.28656446564339
H           1.63387864799541    0.83905457467034   -0.04891108615694
H           1.62069901012846    0.55649920086815    2.07553872200697
O          -1.21033207449253    1.09185207528091    2.31083402591404
H          -0.24218960405689    0.99587301291083    2.67183612243419
H          -1.18745553715894    1.82500473803860    1.59158214711205
H          -1.34241122674332    0.20919987683713    1.72470896984367
N           0.37823043444967   -1.62066948258870   -3.16619355282890
H           0.68573039643923   -2.21478403904407   -3.92557582796642
H           0.90369221292959   -1.85452562293869   -2.32774260694606
H           0.58741863461935   -0.65923625919871   -3.40241102838795
