    23
        -45.37662355  Gyration_radius:  2.35454756555 Dipole_moment: 4.509
 S          -1.57101003018694   -0.30392839263385   -1.02426016249727
O          -0.88533745652716    0.99083408254916   -0.95207319908121
O          -1.58503619637232   -0.89656897607213   -2.33002109131788
O          -1.09483442883221   -1.18112211109219    0.03841347908489
O          -3.09165019620558    0.01855105781454   -0.66900806940038
H          -3.56119687067322   -0.41845230261052   -1.37209596627243
O           2.61243257274513    0.59406832326847    0.92219228631208
H           3.15207068815049    1.00683488950297    0.24555935832279
O           0.99091797244618   -0.06431790496296   -2.59236496632092
H           0.47884295622362    0.59994909247208   -2.10677969416980
H           0.30380650691408   -0.62013363781026   -2.98224920677220
O           1.56724466364696   -1.43214248704815   -0.33710348860017
H           1.57896336703172   -1.07022716229890   -1.24637140613766
H           2.29437778121508   -0.26495721746312    0.51876887605306
H           0.61923040219823   -1.50354071181540   -0.12500777506461
O          -1.00403860398413   -0.58107508402107    2.57766623620604
H          -0.27047861944487    0.77170780067333    2.01910453880788
H          -1.19149862662848   -0.88915305100395    1.65877717856002
H          -0.44901331431915   -1.25910261073696    2.96891622683006
N           0.16933292562700    1.48235230668147    1.37820343989450
H           0.04021483596683    2.42692058853802    1.72289221315582
H          -0.29865256358824    1.35488195972970    0.42925045411711
H           1.19531225456518    1.23862152834875    1.25759073830644
