    23
        -45.36406407  Gyration_radius:  2.38282422132 Dipole_moment: 2.248
 S          -0.89393382033983    0.58400542519396   -0.55709045041270
O           0.14378238463917   -0.37243589365366   -0.95546030851844
O          -1.86527879697898   -0.03302093085398    0.32641748903822
O          -0.29090752131179    1.78553919558134    0.02582075345372
O          -1.61038300714559    1.05740525889734   -1.85343110022101
H          -2.06653522605605    0.22810314392563   -2.16131863157255
O           1.34077977371699    0.32915901906545    2.96817221822642
H           0.69648394610978    0.76303270966739    3.53108092087090
O           2.66607743983214    0.12764815743879   -0.82175731663899
H           2.93766103325303    0.50078986922361   -1.66226849317222
H           1.71196785469701   -0.14231806498443   -0.93301489943224
O           1.97765152352600    1.76394582420190    0.98585390502029
H           2.42744363050982    1.13295662815459    0.31125511845239
H           0.99911469762545    1.87031950840153    0.57206284086212
H           1.81365399214420    1.21243949800079    1.84937802256414
O          -0.03021870225390   -1.42240233174743    1.59927553564066
H           0.44346734571193   -1.60239911445679    0.77949310584720
H           0.85488639662822   -0.41739295105853    2.51659460678720
H          -0.83806618080708   -0.95526789500970    1.29450340755188
N          -2.57303868703082   -1.36517508317028   -2.06901816733168
H          -3.42110373652475   -1.79865258700040   -2.41114072277841
H          -2.63171495894382   -1.27268347328439   -1.05811129957006
H          -1.79178937103014   -1.97359590253860   -2.27729656464066
