    23
        -45.37662534  Gyration_radius:  2.35457835177 Dipole_moment: 4.513
 S           1.68873176606392   -0.62479419169373    0.60655295935628
O           2.32434898440899   -0.19463445011429    1.81789751989540
O           0.43138736243724   -1.35407039533753    0.80903652338266
O           1.50335360308755    0.42009455291815   -0.39237715643359
O           2.67686375933511   -1.68561497518973   -0.05710300553779
H           3.43491193689364   -1.64165118046281    0.51673200820442
O          -2.66399988860092    0.93191937532218   -0.24525889467895
H          -3.15561768524289    0.83569526607143    0.57233957462370
O          -0.15585354911719    0.46060754926604    2.72725335717779
H           0.78867042834795    0.55048134610473    2.90755374336217
H          -0.19665106701821   -0.34930847615370    2.19617597734133
O           0.50873972538745    0.07508948765160   -2.78188001000133
H          -0.66954521595904   -0.70088041937560   -1.95052867010092
H           0.32308087569123    0.96130243958978   -3.09969490271462
H           1.04381651533579    0.19402833022299   -1.96107224756144
O          -0.44393370189397    2.03488584920336    0.55303870484636
H          -0.42663814806017    1.69082833460814    1.46912516227298
H           0.31553269832786    1.60062210089021    0.12483079740035
H          -1.85624099945961    1.47231110230617   -0.00546662652526
N          -1.24832962040453   -1.09674152137448   -1.16484510565975
H          -0.57136378873460   -1.28288846220009   -0.36297494268260
H          -1.72411558095246   -1.94746125808549   -1.44340004446454
H          -1.92714841989703   -0.34982042418073   -0.83593471148187
