    23
        -45.36831498  Gyration_radius:  2.34494825332 Dipole_moment: 5.169
 S           1.61355170174636    0.74458120885336    0.05074060552365
O           2.02359186643415    1.47866577907300   -1.14335006330545
O           0.47893331068309    1.38113566199805    0.70699477153166
O           1.38983360666626   -0.65470838799283   -0.23255595386284
O           2.82200698518569    0.81695632799293    1.06916311313938
H           2.96246596404640    1.74604629306226    1.23199228160767
O          -2.46358215623091   -1.25601547871666    0.10668809710115
H          -2.84951589662012   -2.03615057567095   -0.29170029102157
O          -0.43297711684315    0.25055194459413    2.96060456809720
H          -1.35104430740169    0.52420301916242    3.01439346687962
H          -0.05606772091387    0.72756977341964    2.19520489675598
O          -0.30437271131086   -1.97993584721469    1.40344932023317
H           0.39614327354649   -1.63009468629258    0.82364393541016
H          -0.31752539985187   -1.36875672157552    2.16443792092399
H          -1.67762238594971   -1.57325594032924    0.63264652673912
O          -1.47702989669539    0.90388620514344   -1.05693902706534
H          -1.95093365209099    0.13614577009028   -0.65278940388129
H          -0.87247179318197    1.22510001174289   -0.35598245902689
H          -0.50504611412851    0.41910907789933   -2.04909178732127
N           0.40908429148167    0.09571742703363   -2.58202121229415
H           0.32926608201477    0.09454132204818   -3.59353169485170
H           0.68070074795690   -0.81178874748924   -2.19755122369539
H           1.15261131145914    0.76649658317015   -2.20444640761282
