    23
        -45.37662530  Gyration_radius:  2.3545710004 Dipole_moment: 4.509
 S           0.42450693212683    1.70995005693987   -0.71208316783069
O          -0.54756072470150    2.70381319150756   -1.06383916210192
O           0.47258557355529    1.39090667109070    0.71961384510339
O           0.35586649348494    0.48203615355104   -1.49403088468313
O           1.84770196684333    2.35028583024992   -1.03856017345663
H           1.60853786098101    3.17354921640435   -1.45204840143378
O          -1.12366014244124   -2.20661671524531    1.37507587555119
H          -1.74281656440098   -1.92991938248397    2.05293938926039
O          -2.23061374651670    1.48631130520000    0.69476668580287
H          -1.32225604336620    1.47023135813558    1.03289988793542
H          -2.18490320289302    2.14574237644393   -0.00929385434758
O           1.99102069407075   -1.54350155261003   -1.28809026181421
H           1.47701552690064   -0.72913629645710   -1.50419585584706
H           1.65631545906370   -1.38096673988245    0.30683326077302
H           1.55968796865821   -2.25534676296373   -1.76568007186098
O          -1.87682987436510   -0.80574017342673   -0.68729421562107
H          -1.45747332121107   -1.79157157993917    0.52760078885933
H          -2.26913935236686   -0.04403702135547   -0.21424009120461
H          -1.09843632331716   -0.42842598285224   -1.13497660222780
N           1.24196897053461   -1.04755904220951    1.21570138694040
H           0.33865725163122   -1.57737466162275    1.38958891737545
H           0.98367026360775   -0.02446605135711    1.06574875289309
H           1.89615434411042   -1.14816420708484    1.98356394191833
