    23
        -45.37662523  Gyration_radius:  2.35452005579 Dipole_moment: 4.507
 S          -1.61498384894040   -0.07789896318891    0.99872168596530
O          -2.91825218194547   -0.22670797226260    0.41926195621309
O          -0.72782880358119   -1.22936073405212    0.79621146347718
O          -0.92253182336160    1.15356330427735    0.64095130357910
O          -1.83925904075520   -0.00427287508471    2.57559695550309
H          -2.78850636400233    0.00649783353647    2.64394271464670
O           2.09074378771332   -0.33372327842504   -1.88084220337035
H           1.94169130164088   -1.08851605338408   -2.45305849106361
O          -1.68573214849048   -1.35414443105543   -1.73014954937291
H          -2.52694978013002   -1.00203410221140   -1.41246413254330
H          -1.23951780571526   -1.61578902533076   -0.91029409775134
O           1.40890001369312    1.90506198759491    1.54617617615164
H           0.46170207119779    1.72902617842112    1.33207996222309
H           1.83236439300779    0.38331466506815    1.11382382093411
H           1.67487455715568    2.62366104960003    0.96845847223968
O          -0.20555151299499    0.89295694718443   -1.94962795200858
H           1.27560141015954    0.23855976391010   -1.98116659630637
H          -0.77966500129818    0.12310759542475   -2.13821900111551
H          -0.46456101838660    1.16451858434851   -1.05081283512421
N           1.79780662840854   -0.59617539848058    0.72867298276228
H           0.78334514617813   -0.91192260058626    0.81226822534393
H           2.41514460145168   -1.21936082169515    1.23682969192207
H           2.03116542896483   -0.56036166361153   -0.30636055227697
