    23
        -45.36831499  Gyration_radius:  2.34496466631 Dipole_moment: 5.171
 S           1.58940165698311   -0.58008017500999    0.54586001802092
O           1.57956400626399   -1.65600802096830    1.53336701964238
O           1.03444059979783   -1.01800173110984   -0.72829188460958
O           0.96034670315020    0.61759263686039    1.05396739622127
O           3.10635880924014   -0.22044462793961    0.27698475758555
H           3.50595262773687   -1.02512984102495   -0.04278665840358
O          -2.37137441286919    1.06141277050273   -0.95303192986368
H          -3.05531936859681    1.62978328843388   -0.59884627234046
O           0.98856087431324    0.76505713695222   -2.73011568934427
H           1.08318191168336    0.07652187466901   -2.04279577364604
H           0.27458217908297    0.47106525199788   -3.29969238170663
O          -0.08079050319091    2.32098749023196   -0.76744870524952
H          -1.52558362613065    1.58889705503823   -0.91539208782027
H           0.34869798907516    1.83553502958591   -0.04000648727814
H           0.37945933093658    2.01183004941781   -1.57082297094214
O          -1.55153906446911   -1.30297144556261   -0.09864757194929
H          -0.64495220627895   -1.32334737688300   -0.46971943991244
H          -1.25298378330381   -1.13379464726967    1.33181514448389
H          -1.95429546323414   -0.47335847550865   -0.45484880522418
N          -0.76588854101356   -0.95977161091907    2.30994578777767
H          -1.28310290658995   -1.31454463584208    3.10753919140809
H          -0.56041754887028    0.03962161178566    2.37428064480545
H           0.19570072628203   -1.41085162744060    2.17868667834476
