    23
        -45.36406412  Gyration_radius:  2.38335866729 Dipole_moment: 2.253
 S          -0.07237727428429   -0.52838638379319   -1.07923597976556
O           0.28954253996282    0.71683701569782   -1.72982918502559
O           0.71353319589954   -0.73754900061389    0.14095372257424
O          -1.50628990670750   -0.61222313797426   -0.78949787274933
O           0.23464267806377   -1.71397816409504   -2.03747633090257
H           1.19131576087024   -1.56260030211599   -2.26627844420634
O          -1.87895703902784    2.22123801988035    1.50388926909756
H          -2.36712055617383    2.69592290943737    0.82814935297207
O          -0.32182046943143   -1.36888349994766    2.41245501577878
H          -0.33398428004128   -2.32564059586352    2.47584602596372
H           0.16675396464859   -1.15244990466879    1.56982177343106
O          -2.39651217755234   -0.25347939958139    1.47927088759089
H          -2.09717379898378   -0.44695739315073    0.47284396419317
H          -1.64600831032481   -0.70478784691691    2.01644824584995
H          -2.26003440760864    0.77078846950581    1.57641480555187
O           0.54369033958493    1.99429966285169    0.55511183726746
H          -0.92546147086474    2.22004131295014    1.20675829806506
H           0.95995977817545    1.23054540106206    0.97004124386149
H           0.44506051482124    1.71616063149121   -0.38122933686438
N           2.65148975001112   -0.74271486948748   -2.28144544003481
H           3.11054934257573   -0.86241032713971   -1.38768905040879
H           2.14085164046872    0.13606512553199   -2.25156176789468
H           3.35835018590655   -0.68983770306034   -3.00376103434881
