    23
        -45.36406411  Gyration_radius:  2.38299662219 Dipole_moment: 2.250
 S           0.81945456327744    0.52378241917293   -0.71099559495129
O           0.64729648908896    0.34310031642981    0.73405790542787
O           1.07317940498537   -0.74266864482858   -1.37181154482574
O          -0.32850606185379    1.23302850959364   -1.28199867563674
O           2.04169350336432    1.46241094866712   -0.91859148647484
H           2.79836010053507    0.90444798754856   -0.59206424701661
O          -2.99831272167350   -1.17911006009211   -0.58248311429232
H          -3.05513627157241   -1.37679688098950   -1.51951133261285
O          -1.32061598545049    1.33167531034070    2.06825194339426
H          -1.05350063940584    2.19370294144019    2.39212125067604
H          -0.51278217742744    0.93421455269967    1.63824853381779
O          -0.64122791951092   -2.03581505709879    0.14641455982371
H          -0.36788296648925   -1.54230187538602    0.92772372422095
H          -2.14925555957916   -1.59670476159986   -0.26287916049609
H          -0.01565758426607   -1.72821683749432   -0.54485919132589
O          -2.52208617278805    1.26826552986694   -0.16149081218210
H          -2.82876536557806    0.28865374774709   -0.31366666604060
H          -2.20026690168854    1.33039567254662    0.81218586505858
H          -1.60374697682597    1.32551724876712   -0.70316627019671
N           3.54170663711106   -0.47910341385250   -0.01128310170743
H           2.87976327300885   -1.03967570620275   -0.54184961760092
H           3.31950617728040   -0.58766667961314    0.96992010731831
H           4.47678315545235   -0.83113525768806   -0.17227307437908
