    23
        -45.37662527  Gyration_radius:  2.35454390424 Dipole_moment: 4.513
 S          -1.16660644362382   -1.49916867326124    0.04307057915658
O          -1.10572087292643   -0.48633626447091    1.10331181060292
O          -2.42591729443204   -1.56572071988453   -0.63965466279563
O          -0.00369159404801   -1.37996755693762   -0.82727456611408
O          -0.99964621963183   -2.89400559211872    0.79724271127448
H          -1.75396138664004   -3.38364297396353    0.48547774690338
O           1.16122550958000    2.58276900983245   -0.06427152934193
H           0.52018168643613    3.27142929221340    0.12061343150955
O          -2.45203008470652    1.15485176399858   -0.57352976632813
H          -2.06896536065511    0.80411070133959    0.24493750547306
H          -2.88369819494532    0.38032923848246   -0.95632149664653
O           2.48561475420609   -1.34998143162004   -0.03937985957796
H           2.98027661459309   -1.04843979586309   -0.80440602834568
H           1.92277171613494   -0.21662029595905    1.00001365852229
H           1.57404899375272   -1.53577352443423   -0.36903860154334
O          -0.06675046809111    1.12358318190892   -1.83772370546751
H           0.04501650883047    0.17950760407112   -1.62565207899128
H          -0.99027448127982    1.31609393942292   -1.57714019955415
H           0.78424815149403    2.07209404391749   -0.83831458417497
N           1.28840468886704    0.46000039321841    1.49877802667513
H           1.29659360174191    1.38138513096570    0.97172130773289
H           1.55450876332396    0.57474529596596    2.47022719513930
H           0.30437140205234    0.05875722318270    1.41731311588363
