    23
        -45.36629899  Gyration_radius:  2.36401773767 Dipole_moment: 2.440
 S          -0.13523667449542   -1.71429157350907   -0.62590780459907
O           1.07599708144917   -2.49472871967101   -0.58414156043189
O          -0.61418778744752   -1.34915399741038    0.70515903665870
O          -0.09537601342983   -0.56144476011401   -1.50811000420043
O          -1.25196039293180   -2.66794160271274   -1.24288972488768
H          -0.98983927418543   -3.51143150616738   -0.88998530807780
O           0.35378375498629    1.93848146636001    1.86746745426579
H           0.78406653382451    1.44274613946583    2.56750283824208
O           2.80089459752306   -1.07383736224380    0.83165083833763
H           2.15499975757483   -1.66654021986748    0.38912540424352
H           3.66623954191284   -1.37063194308560    0.54334174930849
O           1.61704288222722    1.08944225516519   -0.24119184507413
H           0.87070088982316    1.72555006696418    1.03584581043756
H           2.19856249553859    0.42241545702023    0.17793562057970
H           1.02188261043513    0.56553296212175   -0.80693837539334
O          -1.79511924598907    0.80123882063672    1.15640321702984
H          -0.99821570367755    1.33405438317172    1.53492529732267
H          -1.92565933057924    1.17500070438651    0.12994942796748
H          -1.38779828014907   -0.13908601176486    1.01121844569064
N          -1.88822018344361    1.49549051594340   -1.25645557335511
H          -1.26540656299226    0.73791682139219   -1.56828488258780
H          -1.43949329581901    2.38020450291894   -1.45685610485553
H          -2.75765742014633    1.44101360101356   -1.76976394661282
