    23
        -45.36831499  Gyration_radius:  2.3449511438 Dipole_moment: 5.168
 S          -0.06556553599717    0.80884604946435    1.58176927770676
O          -0.69380681480442    1.40893953900060    0.41197517888071
O          -1.05981053493254    0.30339810318297    2.52456262809637
O           0.91126658730064   -0.20068215177145    1.24264269493717
O           0.71509679184331    1.97023234906755    2.31969099803459
H           0.05292308746609    2.61779951793860    2.54691944036023
O           0.27970703467217   -1.14552264167877   -2.50357683808610
H           0.63384256569710   -1.96802913384171   -2.84172270775248
O           0.92255814668452    2.46237428938084   -1.44976721738613
H           0.31788051387818    2.16861904034349   -0.74017555644548
H           0.41075862772465    2.43065281633033   -2.26074002169545
O          -1.70537808566659   -0.75192603989520   -0.80149310530191
H          -1.04489652420229   -0.92877430602005   -1.51551656742912
H          -1.40339204294095   -1.58843042648879    0.37036630389279
H          -1.47119355422971    0.13389403079867   -0.45437653498338
O           2.16430658638054    0.05878461738584   -1.13762272363154
H           1.03402211684034   -0.69055354785122   -2.03559252165374
H           1.97555645628114    0.99758702387281   -1.32691290402803
H           1.85397525281452   -0.07131767414038   -0.22325904380093
N          -1.05778635993509   -1.97735998818290    1.34684494803027
H          -1.51933296230951   -2.82903273428449    1.64875660993936
H          -1.21023440498076   -1.14391948709184    2.00066072801001
H          -0.04049693758038   -2.06557925552361    1.29656694431225
