    23
        -45.37662334  Gyration_radius:  2.35442270415 Dipole_moment: 4.512
 S          -1.49356662887634   -0.39048998792712   -1.10673823163006
O          -2.68170903370481    0.40949023723834   -1.17596950473247
O          -0.28020017391671    0.28056656594824   -1.58521951034334
O          -1.24626563590459   -1.00272805240521    0.19316674243308
O          -1.71689742328871   -1.60187471546002   -2.11915596487648
H          -2.63638097505395   -1.50912087051157   -2.34662197725845
O           2.07625069090980    1.22362101228247    1.48897976724354
H           2.18208652079144    2.15122338334815    1.27056207536563
O          -1.16913458676479    2.49895223874007   -0.31495577732727
H          -2.07327252753751    2.20051021115880   -0.47788095038757
H          -0.64886806785136    1.94305385404482   -0.91460892269063
O           0.71815395267262   -2.62654824501147    0.75896059811291
H          -0.12055598989820   -2.16113924145795    0.52581311580212
H           1.61411583096988   -1.46320231804537    0.03531339179907
H           0.73231222403300   -2.66794033851606    1.71759470822245
O          -0.49632118845464    1.00721278244733    1.83230726621290
H          -0.82517740516210    0.20338174134350    1.39121549862050
H           1.11726053978734    1.12328719455403    1.75778074601619
H          -0.79084531233503    1.73475802946820    1.24763905220463
N           1.90018552025461   -0.56822970506424   -0.44057200687060
H           2.10411282656019    0.15976974765034    0.30449224554752
H           1.04508704553643   -0.23413680166048   -0.98165375895568
H           2.68962978721561   -0.71041672215874   -1.06044860249098
