    23
        -45.37662531  Gyration_radius:  2.35461823504 Dipole_moment: 4.511
 S           1.05024405849325   -1.05996532724452   -1.17670019959732
O           2.48390161560079   -1.09251826599098   -1.17502397196814
O           0.43186306412231   -1.57702603594423    0.04965720713923
O           0.46724449349455    0.23012151202203   -1.52298026719138
O           0.58795225914646   -2.06445972869950   -2.32537254267450
H           1.41686903809585   -2.31285851255927   -2.72161879150262
O          -1.07702371645356    1.43047572837980    2.19538952555521
H          -0.63853577184102    1.21008479900073    3.01914999135851
O           2.36530879650042   -0.26784429080736    1.41573150032184
H           2.96077675413596   -0.40218981286625    0.66733504982798
H           1.64151574730057   -0.88444529181753    1.22730420240044
O           0.92343766481663    1.85746475301813    0.58341949223765
H           0.75862778191916    1.42374117580791   -0.27300506819791
H          -0.34693215263507    1.73104167166192    1.58007412275557
H           1.58810370031953    1.28289868394038    1.01468678401651
O          -2.08476273502089    0.72481553613437   -1.76958879027969
H          -1.12299940275307    0.52019738268307   -1.85508349968166
H          -2.15541263349594   -0.01869202678745   -0.31223196397194
H          -2.14748099711396    1.68221158409584   -1.78729007274922
N          -1.87846901085257   -0.49912931246386    0.58301742298903
H          -0.96850758412235   -1.01314836532751    0.37396392164465
H          -2.59509093028592   -1.14308965125019    0.89838859453803
H          -1.66063005933006    0.24231380507084    1.31077735302980
