    23
        -45.36406414  Gyration_radius:  2.38312235777 Dipole_moment: 2.247
 S           0.48750793513491    1.03664282784855    0.37098226162404
O           1.56332533340487    0.31222482894492    1.02115869997530
O           0.15384474891612    0.43964992259364   -0.92621514939403
O          -0.70701580827983    1.13971238356108    1.21325331348897
O           0.94392270324312    2.49908719246741    0.10476975621787
H           1.79487970646180    2.37050297458139   -0.39507446094180
O          -1.54574001661898   -2.40881769255455    1.59027502452439
H          -1.27855941561826   -2.36711845966084    2.51069448684116
O          -2.24790765058901   -0.13972278997168   -1.65135656441824
H          -2.60811606233743    0.62013968885817   -2.11199822795513
H          -1.29159240239137    0.07576785331911   -1.46576266096416
O          -2.68540408466522   -0.27976673104925    0.84040083434143
H          -2.67364242372856   -0.29923678719658   -0.18666377362096
H          -2.32381946181432   -1.19779585886933    1.16161910529000
H          -1.88365676470692    0.39081684908116    1.05918093502986
O           0.65151210024772   -2.02492303240012    0.23148467707593
H          -0.70282403621677   -2.37284126647500    1.05589276110392
H           0.41439295887266   -1.67328158436865   -0.63393643147107
H           1.10886632943497   -1.27115545813026    0.66325147357247
N           3.06365086236891    1.50494945619281   -1.06195503061838
H           2.74864081010793    1.05490237565257   -1.91167199262414
H           2.98106004616821    0.83016958366259   -0.30580681474969
H           4.03667460264047    1.76009374387641   -1.17252221236097
