    23
        -45.37662519  Gyration_radius:  2.35448157452 Dipole_moment: 4.509
 S           0.01406481786406    1.83855446735263    0.48015261884208
O          -1.15750459391013    2.66029899455223    0.57231784916103
O           0.06306125352099    0.74292807486989    1.45530431775820
O           0.30222799313414    1.33056085834970   -0.85512332999160
O           1.24401105366872    2.78013589250788    0.85829368717102
H           0.82746842488893    3.63140563041427    0.94507221096918
O          -0.59860297339843   -2.74421368074307   -0.36385688333624
H          -1.30302813454359   -3.03744105580110    0.21681956396039
O          -2.57006931949636    0.36651293257891    0.96539071941365
H          -2.65611326464581    1.31105759522313    0.78369244384764
H          -1.70679840152131    0.30998507765264    1.40284904977486
O          -1.56932340709027   -0.54671811250624   -1.36979439758696
H          -2.16799101389390   -0.29910806293386   -0.63622658664857
H          -0.88951773741815    0.15084338634995   -1.36377109434747
H          -0.98036042132650   -1.97155794756900   -0.87290292033523
O           2.38272618539406   -0.09966814889408   -1.52240833928634
H           2.16984879142395   -0.44972779902510   -2.39019129691010
H           1.69227460694089    0.57978076971912   -1.33358295543544
H           1.93370736610538   -0.97889945229826   -0.21599544223194
N           1.40053241213056   -1.33068357305363    0.62126922498877
H           0.89901391705550   -0.48409821349104    1.03060056632225
H           2.01699601564819   -1.75372675546665    1.30587993539449
H           0.65337642946130   -2.00622089780844    0.28621106852457
