    23
        -45.37662378  Gyration_radius:  2.35455101339 Dipole_moment: 4.518
 S          -1.79173017798158   -0.48039875008901    0.40476267161476
O          -1.40029488263125    0.83167096064833   -0.12151926098613
O          -2.64323392273882   -1.23909183404338   -0.46463844354641
O          -0.61608593599767   -1.19702403728229    0.88416963829327
O          -2.66007088774378   -0.15827369308252    1.70261437299597
H          -3.43520945928720   -0.69325832908525    1.56570097566359
O           2.42913653173805    0.78200113861652   -1.23131544324883
H           2.29573816446395    1.11921439905544   -2.11888951821884
O          -1.09479475352390   -0.37198702583933   -2.52574190766094
H          -1.79062507355862   -0.99386495513377   -2.27636785743962
H          -1.19394744562290    0.33461200481480   -1.86976268575835
O           1.03604155886713   -1.41835266280200   -1.23987486761475
H           0.52004541586558   -1.48877776002897   -0.41671870095861
H           0.37087532113322   -1.17681768954806   -1.91601400697214
H           2.01791382230434   -0.13062542539912   -1.23087377430331
O           1.14365296166618   -0.26640216136927    2.57335292326308
H           0.40721116635024   -0.69766668960723    2.07732418224941
H           1.88529030311706   -0.87234457143901    2.51247962088996
H           1.12691566273144    1.02056453830420    1.56160764023152
N           0.91425848611344    1.65286901149771    0.74666430913833
H           1.58561501032619    1.42383752686151   -0.04293540287877
H           0.95687746507950    2.63060824064518    1.01106277348568
H          -0.06357936062938    1.38950776425924    0.41491276177336
