    23
        -45.37662523  Gyration_radius:  2.35456507224 Dipole_moment: 4.508
 S           1.33009426771524   -0.60230272609554    1.21674149038598
O           0.09298507025511    0.06935949730990    1.63163939379756
O           1.45195449602690   -1.95461431074219    1.67800083222204
O           1.53908456347516   -0.42221903799044   -0.21430541716872
O           2.49964511782272    0.21379593972692    1.92964934861108
H           2.98134478569058   -0.47364973342563    2.37837582983044
O          -2.37002534901543    0.45283012855027   -1.48376959489741
H          -3.13602590629303    0.05351270506508   -1.06760896641159
O          -1.18914768654090   -2.25027197221000    1.09093158400126
H          -1.02077465115530   -1.36261628205639    1.44221864976021
H          -0.38640568276756   -2.73074977787485    1.33052431580121
O          -0.62522726209487   -1.48028475942799   -1.43464889251033
H           0.24122734692691   -1.13946124610681   -1.14860656134405
H          -0.95935928821392   -1.96234679864723   -0.65122020696650
H          -1.71629000402600   -0.29516020977416   -1.60598591564674
O           1.53270435164158    1.86469180602699   -1.47497545505153
H           1.71389288385857    1.01941528575116   -0.99881447968244
H           1.47857685420760    1.63105115214697   -2.40414483404106
H           0.12879791727722    2.07229919649332   -0.65774334318030
N          -0.70519144132451    1.90254310797373   -0.03759912953207
H          -0.38564353562599    1.20796488131078    0.70492673550238
H          -1.46030907619898    1.42461172495683   -0.61062950156416
H          -1.03590777164718    2.76160143902263    0.38704410807556
