    23
        -45.36831498  Gyration_radius:  2.34496403836 Dipole_moment: 5.171
 S           1.08881005732700    1.21097307887104   -0.71320744258786
O           2.44909072256123    1.24784129867498   -0.18296799738348
O           0.81696010931416   -0.04365012814686   -1.40258243728704
O           0.10999989450824    1.51990141935330    0.30405077953395
O           0.99180826797074    2.35403581899831   -1.80260391352395
H           1.65315361109372    2.14023970572983   -2.45556746412018
O          -1.85522587427131   -1.79363556476152    0.99968271053558
H          -2.35666688360982   -1.87511920622934    1.81097278592382
O          -1.60445152792593   -0.33837725585579   -2.51546930857684
H          -0.68854970447766   -0.21150218230133   -2.19849637548347
H          -1.74175195309606   -1.28742004685887   -2.54848950966225
O           0.76546443083408   -1.76325833729615    0.64809963400748
H           1.28330730517394   -0.73434971723472    1.56309795496074
H          -0.20303167651395   -1.88838803634581    0.80202623544839
H           0.82626678130111   -1.28932572471348   -0.20729435346677
O          -2.38378182241982    0.54427560655213   -0.05984624413331
H          -2.11832196308408   -0.91939298338417    0.59781659916535
H          -1.55637440281844    1.02789611126386    0.11565802073283
H          -2.34839080708615    0.34061293659598   -1.01383184238397
N           1.64810892263473    0.20441404037170    2.02126323065660
H           2.20107665760767    0.65695262953399    1.22453654035569
H           2.18218595894365    0.07734188835589    2.87457632165876
H           0.84031387602316    0.81993463882807    2.13857607562574
