    23
        -45.36406412  Gyration_radius:  2.38331782001 Dipole_moment: 2.250
 S           0.58611921123362    0.89097136128583   -0.55764787086980
O           0.27890045374788    0.54555381796863    0.83399032665499
O           1.51060639828393   -0.06136058876824   -1.14330520779185
O          -0.64617321736708    1.02762498891965   -1.33862218993851
O           1.24081077305537    2.30147474643147   -0.55172525481332
H           2.10450728157580    2.13503295559005   -0.08589003510617
O          -1.95770247949072   -2.38521008911853   -1.09839941459978
H          -1.76059919168586   -2.52011687112791   -2.02745625694471
O          -2.11415389196684    0.41924074447794    1.77611635449049
H          -1.15517888105094    0.46998085353632    1.50523518756137
H          -2.33723824924664    1.28157673993645    2.13114169572769
O           0.37010299193256   -2.10757510446996    0.05357285752924
H           0.24660452588946   -1.60033713889908    0.86370782189795
H          -1.07781969380697   -2.38549522554257   -0.62610514323288
H           0.88594553849990   -1.49786955480989   -0.51709677442253
O          -2.75551817503469   -0.03118771637193   -0.63336209810499
H          -1.89364344912843    0.48126256088317   -1.00070163142564
H          -2.53990889801940   -1.02799352784005   -0.82425279394087
H          -2.66772049530044    0.10248218009006    0.38135245722847
N           3.30162333125079    1.21534552760410    0.63809645552219
H           4.30455127233591    1.34984852959062    0.65323298668794
H           3.07834590096506    0.45260874791791    0.00382454112224
H           2.99753896332675    0.94414205273799    1.56429399676567
