    23
        -45.36406417  Gyration_radius:  2.38349813695 Dipole_moment: 2.254
 S          -0.40215077606181   -1.07599077945080   -0.35967762746411
O          -0.24344880131473    0.24435999687121   -0.97747537005753
O           0.88531693763175   -1.67380717788896   -0.06014194546261
O          -1.26836366399860   -0.99235419927193    0.81923177283369
O          -1.15917112404850   -1.97611327091635   -1.37696285344802
H          -0.49827904802776   -2.06775008081319   -2.11559607986857
O           0.73490153185918    1.21042630479508    2.95373743585880
H           0.91870790521495    0.46925321938858    3.53427558176476
O          -1.49755891193032    2.34921390076539   -0.18598677100813
H          -0.99080704430628    1.58315761109079   -0.57588256561294
H          -2.31052940739812    2.41580302219583   -0.69013753696947
O           1.92343151506457    0.61916171406955    0.70419948160348
H           1.47756141674383    1.09257124749064   -0.00701503340692
H           1.27111349272203    1.05311784113418    2.12611680094665
H           1.70660689172071   -0.32039627464438    0.52008293694252
O          -1.61696592567705    1.12497310009636    2.02904574891457
H          -1.54274761733967    0.17220556466986    1.55257934896590
H          -0.69230243570233    1.23539709970797    2.48678833295588
H          -1.62854556821948    1.76551474565908    1.22593646104738
N           0.97840918262430   -1.87947041371890   -2.88163111541732
H           1.05965895380915   -0.92917937338840   -3.21959894500000
H           1.45802788542002   -2.49446286356679   -3.52655436155625
H           1.43713461121527   -1.92563094430286   -1.97533369654342
