    23
        -45.36831500  Gyration_radius:  2.34498215651 Dipole_moment: 5.169
 S          -0.74650779611319   -1.26850601407580   -0.99740515691605
O          -0.09853629228008   -0.11935474647943   -1.61611180425159
O           0.03510611917479   -2.48838610934282   -1.18137769197287
O          -1.07697949203707   -1.04988224351605    0.39231805789041
O          -2.11381991603431   -1.48178473552998   -1.76405673155498
H          -1.87391230090166   -1.63776619497902   -2.67376196325301
O           0.97476096027011    2.07969351085362    1.54384434458859
H           1.10542768694532    2.23138089456249    2.47989627578506
O          -1.36454389570200    2.23906747932416   -1.46303357522871
H          -0.66706551340350    2.89358517771380   -1.53889359447803
H          -0.93574753773697    1.37297973278086   -1.60959147297470
O           2.01771663976338    0.21210007244770   -0.01086448071817
H           1.73372838418696    0.95911228783771    0.57105130770828
H           1.74686200983104   -1.06869207594096    0.66031077439142
H           1.35090550543119    0.18289363448155   -0.72816574696407
O          -1.55073832817853    1.50015411192351    1.15150485275029
H          -1.50382914041360    0.54475112209588    0.96634100757081
H          -0.00148550033303    1.91399778321809    1.42347311770988
H          -1.71348628649804    1.90872022140233    0.28006431373977
N           1.31450126044775   -2.03016320867408    0.99622374568076
H           0.91103151585969   -2.43666438293608    0.09217961470138
H           0.48757739932393   -1.81283715327531    1.55672980353032
H           1.96903450839524   -2.64439918389208    1.46932501226379
