    23
        -45.36406418  Gyration_radius:  2.38342348272 Dipole_moment: 2.254
 S           1.15850408636205    0.32575125455391    0.02141259105806
O           1.52208930540723   -0.95283938981885    0.60266216679533
O           0.13249044293127    0.16528733661209   -1.01387077408944
O           0.72522432516491    1.29636005520654    1.03009234183789
O           2.40884642067668    0.95254120967561   -0.65809155702416
H           2.70884653626742    0.22544348884948   -1.26792452821072
O          -2.22021686519791   -0.42136534213797    2.37041980772954
H          -1.74500721941174   -0.58160343443403    3.18815820675591
O          -2.02402907741215    1.56916508859437   -1.11500354983951
H          -1.85139426487716    2.33618890309828   -1.66396142591302
H          -1.20730198245659    0.99885822678181   -1.16995006936881
O          -0.95816116521985   -1.82781780633909    0.56737193533644
H          -1.81894162329096   -1.03497093287672    1.69237065409392
H          -1.11826000015549   -1.42735147306449   -0.29448332315496
H          -0.00150020307782   -1.66591560451041    0.71663094252819
O          -1.65338970794648    1.83398775663613    1.37762773657629
H          -1.98132268795103    0.95858379156987    1.82810532109616
H          -0.60125298476772    1.68012296203354    1.27869297442675
H          -1.96765226416850    1.80046339346804    0.40027148328457
N           2.70129450529222   -1.30515464236630   -1.94665350325672
H           1.92809784602552   -1.37872615945623   -2.59520443465230
H           2.39334899168477   -1.68263485700879   -1.05412881647619
H           3.46968758612395   -1.86437384507111   -2.29454417952670
