    23
        -45.36831500  Gyration_radius:  2.34498135267 Dipole_moment: 5.168
 S           0.38475556220787   -0.61377624067443    1.62373196718233
O           0.58323833741537    0.79115302189034    1.29207596251281
O          -0.74628683164533   -0.79647134008975    2.52939683074975
O           0.27734225283960   -1.45964974367364    0.45697777018985
O           1.67778527621728   -1.07881993973005    2.40769327320428
H           1.72285145713930   -0.51946946469938    3.17876106151147
O          -0.39433544879620    0.91726230011126   -2.58107176329097
H          -0.75541733141273    0.55000575415829   -3.38793134916368
O           2.63801228671080    1.39802156376962   -0.31983374106074
H           2.38569440509530    2.22688474161568   -0.73206973648516
H           1.94427982728805    1.20608566865603    0.34148429336509
O          -1.56140623400536    1.27406009087670   -0.23515526287646
H          -0.77887582415539    1.28705937764976    0.35432885066585
H          -1.19047092197123    1.22935952792910   -1.15042481868163
H          -2.14786344300372   -0.02611499330086    0.12523549247958
O           1.55775522869320   -0.63449617929576   -1.77528076087189
H           0.37583779178003    0.33451278193008   -2.33160145691260
H           2.17614904924560    0.01284901298495   -1.38623084671383
H           1.15136549637899   -1.07388192352286   -1.00647186083647
N          -2.34176138848172   -1.03624828489376    0.53295000312287
H          -1.88220195941187   -0.99374559982960    1.49851191446084
H          -1.75570139840525   -1.69240885843535    0.01218753582525
H          -3.32074620972149   -1.30217126342147    0.55273663162631
