    23
        -45.36406413  Gyration_radius:  2.38364519749 Dipole_moment: 2.248
 S           1.06760114043606    0.22691481580337    0.50692619905281
O           0.49165718203513    0.36799404262548   -0.83419358337072
O           0.44462888325204    1.14208025507163    1.44464670934178
O           0.99717583424793   -1.16669893286604    0.95401304470707
O           2.58271329543442    0.55934279311407    0.39813415975245
H           2.57431138697069    1.52949056102317    0.17629299033427
O          -2.63535960575963   -1.64708186887414    1.03576859972076
H          -2.60532302931659   -1.67473043432411    1.99413128078933
O          -0.32498577030850   -1.62110232660121   -2.25096960584478
H           0.40734152686396   -1.91596082556908   -2.79529276231272
H          -0.01046138157913   -0.79651434218899   -1.78544869943529
O          -1.94639854241598    0.79226927154432    0.40593617884893
H          -2.48057003974481   -0.69381357338728    0.78143603896373
H          -1.16425180010109    1.00675945103718    0.95908595763773
H          -1.58845598434725    0.78319428935468   -0.48882289011930
O          -0.61801760736705   -2.75949875857148   -0.00648620212274
H          -0.59205574542128   -2.44084329770051   -0.98278737368705
H           0.12820339310867   -2.14557886907081    0.44772955792125
H          -1.50248217309049   -2.40212484001655    0.40186488296796
N           1.89050247001175    3.03571895853300   -0.08378098129345
H           1.44581497073464    3.04819765624338   -0.99262864639625
H           2.26077141790718    3.95788029753522    0.10786909809780
H           1.17764018845805    2.81410568729096    0.60657602645949
