    23
        -45.37662284  Gyration_radius:  2.35445050181 Dipole_moment: 4.509
 S           0.18566104853510   -1.87556991912581    0.24197253260965
O           1.33742893908408   -2.50827926383281    0.81594471521105
O          -0.55297422761395   -1.00567527918556    1.16336186797961
O           0.43724241242997   -1.17598116184884   -1.01234514377400
O          -0.83221170915810   -3.04976907673388   -0.11520131241987
H          -0.29809970992962   -3.82707040387298    0.01264379129488
O           0.05292376362778    2.82351635482446    0.23106237379119
H           0.32420862104327    3.11207880850939    1.10434153098697
O           1.85046437170124   -0.14792359925605    2.06543460625858
H           0.89407200334308   -0.30146289814038    2.03628741266284
H           2.21294164498384   -1.01783257761669    1.85338677337450
O           1.84785784660991    1.03222511998270   -0.36262643840458
H           1.42161505946836    0.24926735476964   -0.75532316732005
H           0.79045033426787    2.22852849656026   -0.09149497663972
H           2.08282849334071    0.74398344278298    0.54270472681887
O          -1.36509720429676    0.02016120453238   -2.47367869420864
H          -1.78458456643638    0.69096846354284   -1.04076063700328
H          -0.86213690208634    0.56014556468101   -3.08716478674167
H          -0.70447226257641   -0.56727874823160   -2.03432145583448
N          -1.79338355707281    0.95469748187708   -0.02109196934988
H          -1.15316200021927    1.79006660260215    0.11655563439768
H          -1.35744252668762    0.13410825542297    0.50062777210452
H          -2.73412987237142    1.13709578773729    0.30968483418698
