    23
        -45.36629904  Gyration_radius:  2.3642171274 Dipole_moment: 2.450
 S          -1.59419480441235   -0.47022235017480   -0.76526568204780
O          -2.25102297535378   -1.61949968033737   -0.19457686134712
O          -1.49644133199242    0.64486104848290    0.17351197874715
O          -0.31560406785621   -0.74231739450167   -1.39789452778617
O          -2.53881736519295    0.03584073137470   -1.94369266425940
H          -3.39876570282686   -0.16022519585816   -1.58777492982605
O           1.63442926079217    0.92495164730065    1.96394165167321
H           1.07542302139342    0.81460372844178    2.73608724289687
O          -0.92064714975865   -2.18533486468631    2.02104057412516
H          -1.07817079995596   -3.11864596296564    2.17621850906051
H          -1.49300052833183   -1.94120892199603    1.26141723800373
O           1.26235942309340   -1.32241649610245    0.70867030294093
H           0.78315866443719   -1.17309858114225   -0.12603641261738
H           1.60906278125761    0.04240820573407    1.49024107978771
H           0.59563442940912   -1.73013770954755    1.29852097128336
O           0.42547199199569    2.23562369122585    0.16445352129146
H           0.96418284372230    1.82432424346071    0.94069407886883
H           0.94757622400108    1.90988706233450   -0.74859788577616
H          -0.43407909450772    1.65965214415173    0.15805747906488
N           1.49129262744710    1.25754056148240   -1.88926305298339
H           2.43534714950521    0.91981837836644   -1.75173634037659
H           1.43938597978973    1.74641324051148   -2.77281745312057
H           0.85741945330408    0.44718246465588   -1.91519881747300
