    23
        -45.36406416  Gyration_radius:  2.38347529727 Dipole_moment: 2.252
 S          -0.34846188983282   -1.01487841632005   -0.54463144417010
O          -0.37548791535947    0.41423491444823   -0.87195898418695
O           1.01131240979030   -1.51953498800632   -0.50829825979905
O          -1.07425893540320   -1.27183499572164    0.70202929606406
O          -1.14078888822367   -1.76012678869920   -1.65585368451985
H          -0.56612172312839   -1.62467207089038   -2.45708299407218
O           0.97063249346583    0.64506606883908    3.06096952159806
H           1.28312625020981   -0.17572893011568    3.44671507135460
O          -1.70471623452525    2.16059324512047    0.47499114611808
H          -2.57387061393649    2.24089640484243    0.07802779099419
H          -1.18310428029853    1.55190280151675   -0.11908235844965
O           1.93423725250852    0.66246330726878    0.63362835980795
H           1.41788890414546    0.72041712871807    2.17120784699825
H           1.77772050265433   -0.23637221663197    0.27120877822043
H           1.36956368063224    1.22202572287101    0.08885729399755
O          -1.45747092708451    0.49856848538843    2.37143640937053
H          -0.49808979497779    0.61148245226787    2.75065988337690
H          -1.61823064653549    1.28636602879943    1.73211456724660
H          -1.35878281656868   -0.32103621254118    1.69416558587563
N           0.78971497857597   -1.12397033022980   -3.30240426085707
H           0.75113254833796   -0.12107072754237   -3.43093656895766
H           1.24041506180553   -1.53650572947403   -4.10916710216588
H           1.35364059373953   -1.30828515393875   -2.47659589384789
