    23
        -45.36831499  Gyration_radius:  2.34497227085 Dipole_moment: 5.170
 S          -1.34533934153557    0.23622692118230   -1.13801925110947
O          -2.19539104362566   -0.92585621169854   -1.38267452831015
O          -1.44809411295072    0.69347196224727    0.24168592080851
O           0.01799787056670   -0.00169815248689   -1.55397169990972
O          -1.90142975955330    1.40804517446217   -2.04378004612726
H          -2.80361721427865    1.53967453505283   -1.76417265984152
O           2.16463736852379   -0.17232508368351    1.71556838663163
H           3.03043815275719   -0.57923194508273    1.68261234926663
O          -0.01881245959936    2.85394062450685    0.93311545381172
H          -0.61677536179553    2.12469573250859    0.67604704767752
H           0.11285790613141    2.76436837056798    1.87929552188641
O           1.94214793995900    1.44929301919797   -0.33105341736507
H           2.13308660576450    0.47413808958897    0.95655300782153
H           1.32783208407063    0.95529206057013   -0.90365090806768
H           1.39894140932106    2.16778622652608    0.04512802907253
O          -0.22166765649716   -1.29849788884840    1.54281791881169
H           0.67752888302464   -0.92486866204762    1.71363570872372
H          -0.75716343915937   -0.53783036439611    1.23517539612792
H          -0.19316077789891   -2.11860703398559    0.32189025980201
N          -0.28268439442754   -2.50107652779668   -0.71250115026333
H           0.43471858655324   -2.03536216470332   -1.27250485228362
H          -1.19727928888218   -2.05921822927431   -1.04958419611514
H          -0.25877193646590   -3.51236044240389   -0.79161230104922
