    23
        -45.36629885  Gyration_radius:  2.3641105968 Dipole_moment: 2.440
 S           1.59483639668348    0.80945601999810   -0.38914529420409
O           1.59234601213379    1.67664639700263   -1.54058685257287
O           0.73282173486735    1.29908000520151    0.68413734777593
O           1.34219831584394   -0.59217445685792   -0.67270350609199
O           3.07744314944531    0.85292852084566    0.19147173070362
H           3.31685392303629    1.75676727000971    0.01700964375631
O          -2.59391178221065   -0.11311627589822    0.79200690349355
H          -2.86247578256281    0.79952931210703    0.66568672429187
O          -0.94463283342384    1.94998280672026   -2.23857616455464
H          -0.92535979951883    2.16863412263485   -3.17225389907345
H          -0.00734233808758    1.94913470201130   -1.94581099658547
O          -1.25637915492310   -0.58223113655453   -1.38853719055668
H          -0.31046841384411   -0.70275484485079   -1.19000594034285
H          -2.15701504055178   -0.38226677140869   -0.06866226949253
H          -1.30390476012189    0.30453846253997   -1.80096639927960
O          -0.50072891788654   -0.23835668423344    2.21272843651249
H          -1.42237891326835   -0.19816102389460    1.75305236251931
H          -0.07352172203755   -1.20551263367088    1.90978200625909
H           0.05299290216579    0.44272053966223    1.66418622619433
N           0.53921814421322   -2.33045021158071    1.28810592754012
H           0.98488415639266   -1.84149714435736    0.49993131208648
H          -0.12318129756676   -2.99858250872004    0.91520620499170
H           1.24770603134593   -2.82431446671611    1.81394366661321
