    23
        -45.36406412  Gyration_radius:  2.38343692238 Dipole_moment: 2.251
 S          -0.36424473787700   -0.96292270978476   -0.62406832255454
O          -1.63939584284255   -0.94750066807317    0.06769503755975
O           0.07704394446667    0.39605181000634   -0.95371062691279
O           0.67276193620936   -1.67287692608207    0.12943968016865
O          -0.51852753097586   -1.73811074961944   -1.96329730875254
H          -1.28361208383888   -1.27035385029842   -2.39500671428056
O           0.83933931601986    0.41209654186030    3.13887140678045
H           0.43514481641037   -0.29566880034634    3.64470108745739
O           2.43589583475894    1.29267284988672   -0.44109487895751
H           2.98858290372357    1.12399754980057   -1.20633651644434
H           1.51130787581396    1.02252035114744   -0.70133040011111
O           2.42399934818498   -0.47140082908158    1.37760415126199
H           1.86731939876990   -0.09039995098983    2.16606936665957
H           1.71879289556546   -1.07212643667272    0.84640220795319
H           2.58026640921334    0.30452169019532    0.72279697937843
O          -1.00908742406472    1.18960537134792    1.46546130928741
H          -1.40048442385179    0.37055008476241    1.09167718747519
H           0.11366375929582    0.79410600929681    2.56893884245483
H          -0.57682177454649    1.59467500767829    0.70534706498934
N          -2.55023606288506   -0.18000393617083   -2.50030546333742
H          -2.70788630149395   -0.29017766802463   -1.50188077709122
H          -3.43504520962387   -0.25807350694910   -2.98531293324186
H          -2.17877704639938    0.74881877611706   -2.65266038975072
