    23
        -45.36406418  Gyration_radius:  2.3834845872 Dipole_moment: 2.254
 S          -0.77031264249252   -0.06038583006623   -0.92275949258284
O           0.47426386497286    0.66183552146898   -0.64039880409553
O          -0.53329414015681   -1.48639782694630   -1.04666787117230
O          -1.78755383485349    0.25253256041691    0.08442096329666
O          -1.32731644811430    0.48422458911045   -2.26854074344800
H          -0.64537406138648    0.17472103158280   -2.92399712509296
O          -0.16607236635511   -1.07297424311888    3.09033580829861
H          -0.81285863633654   -1.78090810336871    3.11752217352051
O           0.72357449509503    2.38879883216933    1.25345310944058
H           0.71125906836357    1.75647832734499    0.48177690682367
H           0.51917951059980    3.25367150660835    0.89325385509860
O           1.21696113274974   -1.50327680272998    0.91672480624255
H           0.44087991921999   -1.28210175288309    2.32540282900845
H           0.56325338044601   -1.71067432781761    0.21431363045201
H           1.59377765195906   -0.66473566071315    0.62750702923402
O          -1.18669755800703    1.10678869468481    2.31538035920404
H          -1.53808264294814    0.76441325953863    1.36685805688877
H          -0.77956367273006    0.25273588929875    2.74161647445665
H          -0.39894232918138    1.70915125834186    2.04742412863747
N           0.71790583442012   -0.64748586277532   -3.44334316177067
H           0.90683135498893   -1.09418941020385   -4.33159024947320
H           0.53412362605770   -1.36262133379418   -2.74428352269366
H           1.54405849369421   -0.13960032614448   -3.15440918027165
