    23
        -45.37772288  Gyration_radius:  2.31641635087 Dipole_moment: 2.192
 S          -1.80816154845424   -0.64716800033410   -0.42060318704066
O          -1.79254817087011    0.79913737562530   -0.37121070846178
O          -1.52173239295312   -1.15484797437799   -1.75719403950843
O          -0.95990196218442   -1.25469646945962    0.59269264189371
O          -3.28551162675419   -1.10248028107877   -0.06656253644793
H          -3.80781529259769   -0.60070089409493   -0.68437001827682
O           1.71293768686798    1.17640466474982    1.43923521471857
H           2.17508919545038    1.81082814562822    1.98860160600706
O           0.52915694756001    1.93336085259235   -0.93798573368525
H          -0.40187600320754    1.69763673242310   -0.72916599947496
H           1.00961594675576    1.81076568028199   -0.09852700553801
O           1.71055930712634   -1.35735672666602    0.25003886603761
H           0.77067179892083   -1.51764613990754    0.46721714375705
H           1.42762445839542   -0.87825396003078   -1.27225441413969
H           1.94132520113242   -0.54302888577268    0.72460498121001
O          -0.49721857633181    0.33699250528546    2.62553912265998
H          -0.80449759722131   -0.19510523600964    1.85626435947706
H          -0.44654149959050   -0.27665879936843    3.36114534366558
H           0.88177251090573    0.93895260360526    1.92234002994137
N           0.94162163386707   -0.37748009822949   -2.06949793368050
H           0.86568039762780    0.64982254657068   -1.77150227496321
H          -0.05319448240683   -0.74843657881761   -2.09054458459260
H           1.41294407796716   -0.50004105261399   -2.95826088355356
