    23
        -45.37772288  Gyration_radius:  2.31632255825 Dipole_moment: 2.189
 S           1.85719163457138    0.12982973682572    0.63195177196823
O           2.02242574284453    1.56598420768873    0.44119771467328
O           0.97216412975653   -0.17605600144496    1.73526226362130
O           1.47971279395653   -0.54953434054486   -0.59750803586318
O           3.28444389682979   -0.44629456958234    1.01458218629669
H           3.44201521663653   -0.05317036273334    1.86721232050988
O          -2.16685467692714   -1.22249305319855   -0.44847034270092
H          -2.95281613809736   -1.76476938908522   -0.37151555980858
O          -1.52163020183111    0.66331519391679    1.46380267048771
H          -1.88650433035134   -0.01573397465816    0.86698413527533
H          -0.65195836153160    0.30429325396750    1.74825210503955
O           0.01884351386213   -2.68647512365197   -0.17203133342619
H           0.30064174309088   -3.27330203942570   -0.87660452028399
H           0.63450576795986   -1.91876827093653   -0.20314931938137
H          -1.39468422083466   -1.82291774169118   -0.29406578731071
O          -0.56267082332952    0.37585782645668   -2.09165741826168
H          -1.26702389108851   -0.17721045945524   -1.71793771821554
H          -0.52556754507268    1.68750566662719   -1.14100040738600
H           0.26799159280390   -0.00681142841025   -1.74540529308153
N          -0.38682333631824    2.25653078690336   -0.25793748524278
H          -0.63010216663909    3.23331532804762   -0.37544511235380
H           0.62994147872733    2.12906383854889    0.02053394127712
H          -0.96324184901759    1.76784090582767    0.50294924417586
