    23
        -45.37772280  Gyration_radius:  2.31632686248 Dipole_moment: 2.191
 S           0.38876295269189   -1.75986418177612    0.78534252793284
O           1.10283853667908   -2.32244394074954   -0.35477246249825
O           1.15486624244822   -0.73137108024302    1.45582099010675
O          -0.95341139988025   -1.32323121437586    0.43403271710430
O           0.19257660720828   -2.93949495438823    1.82710453966824
H           1.08615597484994   -3.12226644361941    2.10007553988028
O          -0.88272046157145    2.36803434055544    0.05756751262644
H          -1.07558410997656    3.27481263369267    0.29897447332150
O           1.70684357590632    1.40908216307290    0.00265060288611
H           1.62277219714210    0.69722758345769    0.67514931203408
H           0.85951175450938    1.88951083150761    0.04360255607980
O          -1.35316407360099    0.25359105373413   -1.71369253748428
H          -1.32845414588921    1.11119058846637   -1.26032091776813
H           0.19219328705802   -0.05192104426277   -2.09436063134043
H          -1.39919127306301   -0.40909890524018   -0.99599384870755
O          -1.78362321253977    0.69149920929557    1.89462297834085
H          -2.72384657009805    0.51751209083291    1.97153355990598
H          -1.39907805207825   -0.10862914531185    1.46888311308781
H          -1.20773904863077    1.80323836706815    0.80319457073814
N           1.21910657202837   -0.26056697381384   -1.93758507098676
H           1.57418623193138    0.49102832780474   -1.26003483547594
H           1.74966213644084   -0.30133122391148   -2.80011645014056
H           1.25733627842570   -1.17650810178343   -1.40167824930748
