    23
        -45.36629886  Gyration_radius:  2.36425705415 Dipole_moment: 2.439
 S          -1.80320317746015   -0.23794289156252    0.20027703878689
O          -1.13153734834066    0.95759144553171    0.70447492878362
O          -2.60528527521460    0.02811546921215   -0.96752282964093
O          -0.87810401695464   -1.34998256072444    0.07248025339804
O          -2.82212939411021   -0.67751928707325    1.34304239337271
H          -3.57471005873393   -0.13293288277212    1.13864769033434
O           2.29048788442112    1.40636489153668   -0.38910557292643
H           1.94671301769055    2.21716403961201   -0.77036169617320
O          -0.97908921031387    1.16959185404590   -2.71462650449903
H          -1.36871341673507    0.99169730931462   -3.57287575786996
H          -1.62762795396856    0.84108490670095   -2.05459517266542
O           1.11288319670208    0.87174738169884    1.78900102573817
H           1.25358877337858   -0.21599699808459    1.86739344590733
H           1.68309380732723    1.15716445896567    0.97933884081583
H           0.14750335016580    0.95537238414772    1.42467928944708
O           0.93984851557728   -0.40405495174601   -1.67812437418523
H           1.87596258764953    0.66624349075676   -0.92243446896879
H           0.32895118844391   -0.86632503268224   -1.07661197131911
H           0.35863240091384    0.17691588732091   -2.21041595486723
N           1.25477643861449   -1.63688272629419    1.76911391550051
H           0.42186326869381   -1.74623019596898    1.17475308151975
H           1.12296065937305   -2.16233653667079    2.62285965057762
H           2.05313474288473   -2.00884946525799    1.27061274890535
