    23
        -45.37772280  Gyration_radius:  2.3163196212 Dipole_moment: 2.190
 S          -0.60332427828025    1.59109930337624    0.98469785296006
O          -0.54911285820256    1.87006816653158   -0.43422559363751
O          -1.90500584978145    1.07776170957486    1.39503360723859
O           0.48991471448217    0.74337344725906    1.43390550250737
O          -0.40279993336600    2.97500027611036    1.73305612039780
H          -1.07391076812149    3.52130690407099    1.33618127477477
O           1.60819177514247   -1.29366796920753   -1.45982150351149
H           2.20490749834054   -1.56618745831156   -2.15794098061012
O          -0.87455887145651   -0.22123241458895   -2.02099219693371
H           0.00886814623141   -0.63127945440285   -1.97802514956279
H          -0.76160400028133    0.65962022460187   -1.59970975765918
O           0.41984887974131   -1.91441391344395    0.99596956581743
H           0.91720305910476   -1.92897867728566    0.16282007761110
H           0.54023319386275   -1.00886389523743    1.34495094388857
H          -1.12150853918757   -1.69342216523140    0.54763570351103
O           2.55984269039739    0.81430409618175   -0.17611759723662
H           1.76270546689036    0.93055335218606    0.38997971842972
H           3.29691869678793    0.71987555248032    0.43049774638219
H           2.00341274598979   -0.48196629108803   -1.05295005835062
N          -1.96294049327556   -1.19839870610988    0.13565402343570
H          -2.79953907200817   -1.77041302122672    0.14170777700461
H          -1.67183067695608   -0.88890802655351   -0.84895739217691
H          -2.08591150605494   -0.30523103968320    0.69665031572337
