    23
        -45.37772284  Gyration_radius:  2.31631637449 Dipole_moment: 2.190
 S          -0.94302474308037   -1.61889895574892   -0.59593191643823
O          -1.52244096265292   -0.44516260544375   -1.21297072246274
O           0.13743984268946   -2.18407315875777   -1.39557937018852
O          -0.54581263418128   -1.39111400343611    0.78462240053494
O          -2.08597167868278   -2.71670958568613   -0.53345335892774
H          -2.37968513652452   -2.75794740201349   -1.43810202907293
O           0.16176222750483    2.23076774737818    1.17827325906667
H           0.00399560862617    3.12308001054037    1.48907567791776
O           0.11426105528010    1.61116868550059   -1.51298804491533
H          -0.61919330346654    0.95682762582970   -1.50836385280088
H           0.12204322240496    1.98064519715011   -0.61084773858892
O           1.73784353005072   -0.07503693879263    1.34443367238458
H           1.36344069732269    0.81545246467223    1.43692897919955
H           0.96366985709983   -0.67193266740191    1.31848356182578
H           2.07991842162959   -0.21237934077640   -0.23346671888650
O          -1.81413873475475    0.62215274364706    1.88908045202039
H          -1.46444035310973   -0.15664022304733    1.39856922632485
H          -1.90185603730607    0.33628717443863    2.80054498927447
H          -0.63005340079381    1.69731462294964    1.44104250617449
N           1.89892849601729   -0.27276698125988   -1.27576610854313
H           1.28984961679047    0.57529529076466   -1.52031218897117
H           1.28239135904829   -1.12503903211769   -1.42103817427986
H           2.75107307008444   -0.32129067839256   -1.82223449064412
