    23
        -45.37364230  Gyration_radius:  2.26201713644 Dipole_moment: 5.684
 S           1.65688745100387   -0.59588719092597    0.39179965018530
O           0.74095649407342   -0.42322439023569    1.49203931953340
O           1.35862857320897   -1.70588076422378   -0.48600451896201
O           1.82201820246974    0.64949398598373   -0.37411029669365
O           3.07561725559099   -0.90183692251283    1.02821870551026
H           3.54974157577412   -1.29909760929031    0.30444741124832
O          -2.32416685376842   -0.44660183439797   -0.33556443131891
H          -2.00860273960853   -1.31051254415425    0.00771300660543
O          -0.92471351259769   -2.52562835872927    0.64844031157765
H          -0.72238223067838   -2.21034025476139    1.53374772407089
H          -0.10152286220795   -2.37375567759510    0.14699719406135
O          -1.41100865853176    1.14075082438534    1.51232456296955
H          -1.95323557817816    0.55589903681474    0.90900120003798
H          -0.65235300399611    0.57307903658800    1.76088784601683
H          -0.75871292287372    1.95804256204118    0.53500991967758
O          -0.20204373972669    0.06181740568418   -2.06531439702282
H          -1.70961565375681   -0.23245851785615   -1.05736307579208
H           0.60954269725983    0.13539315959172   -1.53190205191992
H          -0.14494890269142   -0.80467069377417   -2.47517745624210
N          -0.13243042880744    2.38424609517209   -0.29661658443884
H          -0.58959283352158    2.20016132294492   -1.18822561695346
H           0.75340046256273    1.79967660588120   -0.27845948919701
H           0.06853719900337    3.37133474338282   -0.18188891296794
