    23
        -45.37772292  Gyration_radius:  2.31646906291 Dipole_moment: 2.185
 S          -1.74641326616830    0.56159524131570   -0.70746844525097
O          -1.29206486575190    1.75641942083815   -1.40898256856133
O          -1.31085615231232   -0.65388424725273   -1.36100713033743
O          -1.40987003764351    0.59229026052961    0.70724616673328
O          -3.33125258975638    0.57223326097724   -0.76731828690509
H          -3.50192287994626    0.44517771420383   -1.69512328734692
O           1.55702617057921   -1.57378737793404    1.22167575064808
H           2.03157171682555   -2.34870440712158    1.52532694713561
O           1.30835679115878   -1.00836567524250   -1.47006796809933
H           0.32879470442283   -1.03628078866402   -1.54565587222080
H           1.49610739873566   -1.32012178796500   -0.56559429886431
O          -1.03136735588105   -1.79838669881234    1.71813242073280
H           0.59799551407419   -1.74292249882327    1.40133386557990
H          -1.36340871616715   -1.70038213082750    2.61274055256858
H          -1.27466796515906   -0.96624615170520    1.25142893316378
O           1.09853583111587    1.17289170161745    1.50175828497831
H           1.43339388954335    0.26484979536451    1.57201514110098
H           1.37447826675661    1.59388331871017   -0.03885993069356
H           0.13146866297100    1.07664820230175    1.39360865796161
N           1.28409070817280    1.57007952973871   -1.09424146456576
H           1.44632308176777    0.54998728439652   -1.38247899258664
H           1.90912039610920    2.21869533009982   -1.55871039489495
H           0.26456071655745    1.77433072425699   -1.30975809027863
