    23
        -45.37772319  Gyration_radius:  2.31633040557 Dipole_moment: 2.191
 S           1.04265633326169    1.18221878345907    1.17580688616282
O           0.28141541241796    0.95245047776765    2.39790744638342
O           1.83061332607708    0.02837914536400    0.79856815805273
O           0.20730179000445    1.67308638825257    0.09091276628639
O           2.06571860023457    2.35315144230162    1.48797448947945
H           2.65832150554966    1.94582925236444    2.11193555379267
O          -0.49053541738614   -1.17508460725691   -2.18304315119502
H          -0.42460264268066   -1.68338407222824   -2.99241509972753
O           0.45243854588286   -2.15483492264705    0.22180245032438
H           0.14904637016229   -1.95466478965515   -0.68274422064345
H           1.12156020370825   -1.46261990350826    0.41966796462008
O           1.08117582203930    0.95042300894724   -2.27414436161069
H           0.14992488732868   -0.42470835431703   -2.26912427111539
H           0.84607923887906    1.70293132372260   -2.82064024887475
H           0.89613035794438    1.22684918859192   -1.34737247315273
O          -2.09281935066941    0.41442078218645   -0.53045428311368
H          -1.37321625576664    1.05266317432789   -0.35420765147912
H          -1.74704599656083   -0.16537486959098   -1.22761414299467
H          -1.88240377969407   -0.42456215727033    0.83968561486167
N          -1.35988789279820   -0.91155904264577    1.62233546063332
H          -0.68002377269695   -1.59090003471057    1.14694362746281
H          -1.97649726712384   -1.36546768871913    2.28629993421262
H          -0.75535000811196   -0.16924251474072    2.08191954163621
