    23
        -45.37772279  Gyration_radius:  2.31643328746 Dipole_moment: 2.185
 S          -0.46977100382634   -1.81034806652249    0.60600303363063
O          -1.44305017898219   -1.33705107698198   -0.35469277310995
O           0.63437058442570   -2.51709630221129   -0.03243271452778
O          -0.00786000386035   -0.76249335559144    1.50279736613776
O          -1.21173524306616   -2.86393590878877    1.53062888739843
H          -1.57970763786013   -3.47032045241617    0.89574785010248
O          -0.39006215849332    2.48613969167013   -0.24648603165936
H          -0.77700334971940    3.34517981824566   -0.42020845127984
O          -0.54873591243509    0.44180492033372   -2.09642437122042
H          -0.55168238673789    1.25413435057978   -1.55733333172923
H          -1.04476193122268   -0.21569440249055   -1.56010764769996
O          -1.69404275225854    1.23830398951238    1.68718542430270
H          -0.94808773963539    2.06263774611384    0.45342938235098
H          -1.18177414447021    0.40178878621701    1.60210508797281
H          -1.58897700860883    1.51491640351142    2.59965505753771
O           1.81934421325606    1.03575826163543    0.67367103620688
H           2.00771598196789    0.08586514646703   -0.62602612181682
H           1.20655038118278    1.73002015262561    0.38375463108314
H           1.26379595461734    0.39966996906107    1.16663770158156
N           1.73717013593100   -0.59288409420609   -1.39326408853121
H           2.49660837634812   -0.78473382551753   -2.03631582871928
H           0.87644191783451   -0.16981999454000   -1.87302498479748
H           1.39525388561336   -1.47184175671148   -0.90529909321069
