    23
        -45.36629899  Gyration_radius:  2.36407893539 Dipole_moment: 2.434
 S          -0.93866747636674   -0.94981553531117   -1.25058443261292
O           0.45916790284315   -1.25503684164715   -0.95438408652381
O          -1.84437215984602   -1.94511958681456   -0.73391069773212
O          -1.26561190429527    0.42143353073501   -0.90213786509356
O          -1.07080299527034   -1.01575181456891   -2.83654899290387
H          -1.21804319822493   -1.94579885586375   -2.97086752075843
O           1.82655517664463    0.37452702729773    1.97299687251915
H           1.95575597117822   -0.52648237819518    2.27699718043619
O          -1.30645506694893   -2.13692249174632    1.84931285736115
H          -2.11233713009012   -2.46975714980728    2.24905640446469
H          -1.46069423496207   -2.16051436979573    0.87981361490646
O           2.15257100463760    0.52691293599860   -0.53395698712147
H           2.15335952765555    0.49376158018163    0.49643228179638
H           1.51281954012320   -0.24817843327207   -0.78298222068825
H           1.56859223431884    1.42157552955657   -0.78974637809959
O          -0.76082071467330    0.49431567090975    1.74397394851356
H           0.83379730792641    0.51111100845328    1.96316164969169
H          -1.01561627259139    0.57736222025607    0.80749622141676
H          -0.98558221281833   -0.43083551811965    1.97268721571577
N           0.59667733314283    2.42561363913271   -1.07298164409967
H          -0.23434635372893    1.82033364777407   -1.11539439107762
H           0.68564663141310    2.92614763350852   -1.94700303386685
H           0.46840708988940    3.09111855138931   -0.32142999623959
