    23
        -45.37772195  Gyration_radius:  2.31628321245 Dipole_moment: 2.188
 S           1.01036410732684    1.52971843001398    0.70981831360093
O           2.25819622130029    1.27975993122930   -0.00217329030348
O          -0.03960672663814    1.98850573496052   -0.17396956172736
O           0.60404371906383    0.39608094531290    1.52542079818492
O           1.29853565154307    2.70696508135105    1.73268397120694
H           1.47594688943320    3.44202079378861    1.15433725490829
O          -2.07771721774875   -1.41079133323110   -0.29600763152034
H          -2.97173759806907   -1.71369778595686   -0.45978637737967
O          -0.77866767676621    0.27984224373578   -2.05281501607669
H          -0.62339943777672    1.04047331814570   -1.44986488730522
H          -1.34901999211070   -0.32618245280491   -1.54516771002812
O           0.52740721593886   -2.08181207930821    0.46935739092357
H          -0.40842964516886   -2.09195520426046    0.21248016990558
H           1.29415584035227   -1.44642695649241   -0.80839044303623
H           0.62467194909778   -1.28894330698377    1.03337203246707
O          -2.00006240621599    0.21595369533091    1.78803821769888
H          -1.04475807905165    0.43133885265663    1.68672419674206
H          -2.12955965978526   -0.77888153701952    0.46465333037423
H          -2.09484097670998   -0.13033339062878    2.67756330450788
N           1.57088663622157   -0.71578681191740   -1.52431952983403
H           0.65403443228626   -0.34472393009696   -1.93847786944442
H           2.20878777940877   -1.07274531233464   -2.22629605742994
H           1.99076896407260    0.09162106450766   -0.97718060644084
