    23
        -45.37023108  Gyration_radius:  2.33348208813 Dipole_moment: 4.366
 S           1.66042886587862   -0.05384053317677    0.12798678408152
O           0.76093398756691   -0.60212522727425    1.12016538243514
O           2.43856362756123   -1.05866277566209   -0.57704239558999
O           0.98495779358127    0.83129735316501   -0.81232500190970
O           2.69551400914445    0.84127833981884    0.94452387522789
H           3.45436086738927    0.92579233710912    0.37370280624293
O          -2.88160232725717    0.00543958245398   -0.19644752023457
H          -3.52643226768553    0.07027951105100    0.50939365304439
O           0.07583371047036    1.56066262274581    2.54305026033209
H           0.29703752358183    0.69435375494381    2.15287752011553
H           0.91429741072903    2.01165569182813    2.65666450195088
O          -1.22434162930908    2.01848823781452    0.17720182483903
H          -0.97038157267590    2.02126204874132    1.11803024417693
H          -0.42383678397443    1.70863998614643   -0.28285007477400
H          -2.29878462402969    0.80631024711351   -0.10310896884353
O          -1.17771206338025   -1.99048773341413   -0.09813003051817
H          -0.40612629960240   -1.75790791957212   -1.31122633782105
H          -0.53629126971751   -1.63185963262943    0.54715921220087
H          -1.90890184973251   -1.31717255010875   -0.13065789466509
N           0.32619127510709   -1.38853729703882   -2.06681620080847
H           0.21151390243844   -1.78955663830985   -2.99196337864487
H           1.27790389575440   -1.54663675684217   -1.64645144223069
H           0.25687379816332   -0.35867265890070   -2.05373683860462
