    23
        -45.37023080  Gyration_radius:  2.33337275691 Dipole_moment: 4.376
 S          -0.92384498897098   -0.44960830563358   -1.30980734428787
O          -0.30031277373501    0.84960016712284   -1.17711186415073
O          -0.36901504091962   -1.25966996694937   -2.38149984878146
O          -0.94259818881610   -1.19236637475052   -0.05626218771633
O          -2.44134240683211   -0.15320767157443   -1.69572701768010
H          -2.75282237801141   -0.95435265220731   -2.10791058424511
O           1.66363119081641    0.81359100126476    2.21571852899580
H           1.76117115115776    1.68544568597156    2.60120571233780
O          -2.02339249633633    2.15895279207097    0.40081389737727
H          -1.35848755126937    1.82065207287428   -0.22765146219634
H          -2.87360281102503    1.91898159789109    0.02817372237735
O           2.22345878272252    0.54752220961321   -0.33626509195267
H           1.98301083725017   -0.87580157308382   -0.52713815327807
H           1.39212350204192    0.88411458116760   -0.72632506163371
H           2.12152990179537    0.69206811777638    0.64240094538808
O          -0.92991868868502    0.35791166722461    2.14953300833351
H          -0.99682972850067   -0.31254471649757    1.44634140437286
H           0.69119941185782    0.60772136283129    2.25797621111280
H          -1.36010292706208    1.14466318596142    1.76789481101658
N           1.51948123394574   -1.87624041138824   -0.69511824913501
H           0.98040811578336   -1.79597870860181   -1.59543564572723
H           0.76115970648342   -1.96088927811785   -0.00005159585365
H           2.17509613623467   -2.65056476293739   -0.67375411464459
