    23
        -45.37005582  Gyration_radius:  2.33349490677 Dipole_moment: 4.337
 S          -0.76314362644377   -0.99552891913834   -1.07620451703083
O           0.02186721064769   -1.81581209754997   -1.98740243109378
O          -0.57046493271354   -1.36379188390446    0.31616793692249
O          -0.55938964344469    0.42062491239884   -1.30593823934259
O          -2.29019982011378   -1.30835733727119   -1.41864514557518
H          -2.25697409395553   -2.11325971675743   -1.92826400710499
O           1.35775943728448    1.67196286225568    1.95139329171999
H           1.18680678745986    1.73210251116133    2.89236059837360
O          -2.61766247155337   -0.00598113115962    1.39020368458893
H          -3.27346428836443   -0.10561778197133    0.69732946448122
H          -1.87666298576761   -0.58521764094111    1.13314974712626
O           1.92401357478685   -0.70052986490680    0.98013649268760
H           1.02445157745268   -1.08436867466677    0.91954719305696
H           2.13409231731877   -0.40381823694404   -0.42068889020118
H           1.79646655315485    0.18359609565569    1.41798707576658
O          -0.96454351643822    2.08339232723293    0.78027459649957
H          -1.63512830657921    1.53562114620664    1.22770482492858
H           0.49872828840857    1.90188561511509    1.50542224065049
H          -0.83476609277357    1.63388628238674   -0.07336664992549
N           2.01195638176958   -0.20338078427220   -1.51508569412643
H           2.88373306967565   -0.07128119668829   -2.01754442615585
H           1.37491128362143    0.59875937521305   -1.59355094409308
H           1.42761326657324   -1.00488587151171   -1.87498620215173
