    23
        -45.37023103  Gyration_radius:  2.3333227378 Dipole_moment: 4.378
 S          -1.03693666310158   -1.09806171916735    0.69855048406227
O          -1.73359663578583   -2.09245934213497   -0.10049765081149
O           0.40263188538116   -1.24687388080939    0.69088701379737
O          -1.46294520020729    0.24757741618768    0.33645543398761
O          -1.47809229430083   -1.33269982465472    2.21193593759060
H          -2.40076320736944   -1.56820479645953    2.16732812542779
O           1.84418775534289    1.83796819754848   -1.24866353635689
H           2.73455876455793    2.06403831815868   -0.97590748341221
O           1.15810388387926    0.30925009945262    2.73536871284739
H           0.52068830031383    0.08589104155160    3.41593342506422
H           1.01116041660384   -0.33642187510785    2.01903191431353
O           0.34702131437291    2.16643617419629    0.89366607042445
H          -0.41242699479626    1.58942860892553    0.69671826591069
H           0.79390267201331    1.72390915886730    1.63803516601279
H           1.26453438001459    2.03274308024552   -0.46395651757877
O           1.34423142698159   -0.69026745534669   -1.75249606040831
H          -0.05734078017980   -0.62768653834097   -2.14072254571422
H           1.61977039479012    0.25913417687342   -1.64305543663620
H           1.22287147978723   -1.02152698405362   -0.84029126448616
N          -1.17181639825835   -0.58046806073314   -2.14715229755867
H          -1.42863869181367    0.20918024104739   -1.53427965243452
H          -1.49789627111339   -1.40751644374649   -1.58379738999661
H          -1.58320953712018   -0.52336960252352   -3.07309071403426
