    23
        -45.37023124  Gyration_radius:  2.33340855936 Dipole_moment: 4.364
 S          -0.67825124703624   -0.72980530801420   -1.33492114311048
O           0.26629655813065    0.36374842165477   -1.41315762140618
O          -0.16229463230875   -1.98777356586711   -1.84906352131134
O          -1.22519969170452   -0.90438593450506    0.00423768744266
O          -1.89083269409402   -0.30855545532533   -2.27919822410948
H          -2.34160325071334   -1.12351270130187   -2.48254223735086
O           1.25318984808580    1.25716492488576    2.27521474162537
H           1.52156500910436    2.17099618071368    2.38064547050518
O          -1.28072684003300    2.50867535787549   -0.99248171261928
H          -0.62720325542167    1.82243324114884   -1.22410097943402
H          -2.04792226351163    2.32661303002169   -1.53792300089054
O           2.29547494332191   -0.08683393988391    0.27421888649664
H           1.72755165818835    0.23068108987928   -0.45595216029162
H           2.01266003436636    0.44459086764102    1.06583143896425
H           1.67929830549065   -1.39208879886357    0.46651573290396
O          -1.25832029151026    1.34647645150503    1.48678052280017
H          -1.31682116905485    1.99182905632440    0.75892835770982
H          -1.35989017951909    0.48355469473881    1.04670538416568
H           0.28442903678974    1.28522035369509    2.05035715160288
N           0.98377159698915   -2.26389586484395    0.47366445415017
H           0.09632553594779   -1.91998971615862    0.87170791126855
H           1.34683340641323   -3.08480323170370    0.94714597227074
H           0.72166956200743   -2.43033915353697   -0.53261311133860
