    23
        -45.37023136  Gyration_radius:  2.33349852962 Dipole_moment: 4.369
 S           0.91344428404290    0.64522688383691   -1.23396743600494
O           0.58782400307170    1.36097518877829   -0.01920117946246
O           2.32643984947925    0.33258736354458   -1.36938076140219
O           0.09971991444794   -0.54972956170633   -1.41636746903860
O           0.54562184883294    1.64138315161615   -2.42234306184381
H           1.03800252985764    1.32316081881630   -3.17402793245639
O          -1.52416574952583   -1.08819063111643    2.19807519223879
H          -2.11840033203525   -0.63044031434146    2.79440150276069
O          -1.88718820558006    2.25733502683202   -0.51196704358475
H          -0.97341349064275    2.05149230597773   -0.23942000032625
H          -1.81937404542589    2.58105904989092   -1.41190260111324
O          -2.31650047947096   -0.43205007625505   -0.22670940258103
H          -2.43499478841377    0.53499358221066   -0.24731212935442
H          -1.50838921388180   -0.58282331697963   -0.74897185126570
H          -1.86642598485245   -0.90339690164782    1.28238679352804
O           0.96066788851434   -0.24581775152259    2.08971250683379
H           0.85099921436187    0.52494686668554    1.49779854303496
H           0.03677581949619   -0.57871397207800    2.24734227629106
H           1.52982660999063   -1.17347388926819    1.12257711858740
N           1.84462063100196   -1.69798600996671    0.18995071648460
H           2.36912605466823   -0.98361500870928   -0.37840501156777
H           0.98733576250320   -1.82801814522541   -0.36929959793400
H           2.35844785957232   -2.55890464931302    0.34703083815343
