    23
        -45.36903428  Gyration_radius:  2.34669914799 Dipole_moment: 3.708
 S           1.11017005094791    1.22269497096951   -0.72507094148029
O           1.11129415557730    1.26700198087460   -2.18388328616903
O          -0.19366285694635    1.58095540474494   -0.17863603134233
O           1.59721539076447   -0.03908640769254   -0.21784922459855
O           2.12570609051294    2.33842816597390   -0.24486137750897
H           1.89267290816722    3.11460121622850   -0.74723467226573
O          -1.41420340203879   -2.09969702763983    1.09141677273540
H          -2.04695678938232   -2.22580248680275    1.79924730198536
O          -0.49182129553590    1.55166544710753    2.47195035268905
H          -1.40050006844938    1.80856891283168    2.63641277778565
H          -0.35347288167406    1.64262091204410    1.50734268319168
O          -1.77590774349440   -0.44790625482216   -0.92794690940905
H          -1.75704299026426   -1.06627502367735   -0.15345541800408
H          -1.35294217922015    0.38129779729941   -0.62209693744372
H          -0.69226140230058   -0.97679025366781   -1.77680719331625
O           0.66395070682116   -0.91864652819773    2.16290006739389
H           1.15854578094845   -0.65163401202155    1.36747868515878
H           0.30937944640002   -0.08571439994873    2.51973152367989
H          -0.59386656001813   -1.72808976993329    1.52017312609485
N           0.28749654682075   -1.17187590834081   -2.25270086472407
H           0.24975038658538   -1.80423814503295   -3.04530487341647
H           0.91812563514422   -1.49481483225275   -1.51328797403513
H           0.64833105064335   -0.19726374802282   -2.48751756699852
