    23
        -45.36903434  Gyration_radius:  2.34669652196 Dipole_moment: 3.703
 S           1.03318536585183   -1.47713347474865    0.07306040829513
O           0.30250007152689   -2.73562196339215    0.18471513027566
O           0.73711917332031   -0.79469185059615   -1.18133913187278
O           0.83769275051914   -0.62946544792667    1.22619129263972
O           2.56972420020466   -1.85639687804682    0.03173727314020
H           2.63202264110508   -2.55725407034496   -0.61173378751853
O          -1.55404277123880    2.26240565805913    0.25394154037071
H          -1.64846909982516    3.10241521205143   -0.19636897779497
O           1.91269625234181    1.55614355947157   -1.63652942759842
H           1.59891462024702    1.84442993243775   -2.49509612406094
H           1.55109594244432    0.65664268389866   -1.50237097561318
O          -1.83219592893621   -0.07697869625316   -0.92373793617179
H          -1.78914157789117    0.84841602493274   -0.57105012890412
H          -0.91873858895254   -0.30589539237324   -1.19420206832635
H          -1.92954571618401   -0.87712567486114    0.31156959895677
O           0.97668412270432    2.05083728017609    0.89582174404209
H           1.02563797110672    1.11441425679383    1.15910090751546
H           1.44466925123575    2.08861559656728    0.04354722360295
H          -0.60868347061095    2.22562386688949    0.56991308935467
N          -1.69616785605342   -1.47772832208243    1.21096411945809
H          -1.01410683127385   -2.21225068864095    0.84940492958716
H          -2.50952532030205   -1.86027934073539    1.68173527477490
H          -1.12132519133850   -0.88912226125057    1.82072604590944
