    23
        -45.37005339  Gyration_radius:  2.33360893679 Dipole_moment: 4.327
 S          -0.67398543134741   -0.64931855000615   -1.36208201142031
O           0.16027572168280   -1.38856249539421   -2.29888136380022
O          -0.77424182632083   -1.30211790729776   -0.06760431546506
O          -0.27158486598303    0.73784548640515   -1.25202409994692
O          -2.14202804754985   -0.65979279352125   -1.98776389420138
H          -2.12190826327292   -1.36952709508493   -2.62388294332668
O           1.18072947792246    1.05151029681873    2.43930469657426
H           0.85717883013310    0.95694701611430    3.33633442617539
O          -2.80384385144291    0.12330001114139    0.95110801592228
H          -3.33213317465967    0.25939754342646    0.16211236490709
H          -2.10223378966773   -0.50180356705775    0.69094674289770
O           1.62573379774487   -1.15048695749203    1.08043063641271
H           2.11239679422931   -0.62869954839424   -0.17839900364635
H           1.52727222929550   -0.35674995381455    1.67194623423288
H           0.71219654890789   -1.37752064771893    0.80793292888208
O          -0.83802359900658    2.01946362134962    1.05379386281994
H          -1.63571231956681    1.50313185477575    1.27055844760033
H           0.44491094255017    1.48772844598093    1.93113851154135
H          -0.61372391797125    1.72530230738214    0.15335114530165
N           2.21129168780590   -0.20948356846108   -1.21155854832115
H           3.16763771399002   -0.12848844897782   -1.54133729250849
H           1.70778286467629    0.68519506760770   -1.21215573357678
H           1.60201246781578   -0.82727011780645   -1.81326881707547
