    23
        -45.37005426  Gyration_radius:  2.33350073143 Dipole_moment: 4.342
 S          -1.52601938887349    0.38052259514561    0.50410213667430
O          -1.27741242846875   -0.65647335777100   -0.48309642294769
O          -2.02523967500119   -0.15281089404732    1.76363126009360
O          -0.38111737403820    1.24709576384108    0.69573570707835
O          -2.70357488357234    1.28618963547127   -0.07924832542238
H          -3.47630966010904    1.00706501230114    0.40429954632102
O           2.64994979852925   -0.75897770828403   -0.92311231706060
H           2.89832177303609   -1.08612354295520   -1.78889912950979
O          -0.98797470020893    0.90214138334107   -2.64575672895637
H          -1.11951374605808    0.21773625588361   -1.96395508625234
H          -1.63286994978534    1.58503404438472   -2.45131295646474
O           0.79843096869931   -2.08682446325690    0.38101281023835
H           1.55683765639755   -1.67984940030100   -0.11788587783277
H           0.70689364925889   -1.33634503302594    1.61421956822263
H          -0.00683609937275   -1.74833662557998   -0.06314087979758
O           1.35069911736017    1.48917115306532   -1.35869967252086
H           2.22610295685392    0.12734023324408   -1.08034823679918
H           0.69973343572706    1.33645338685087   -2.06779984285901
H           0.80332896258109    1.55496667938947   -0.55636845685616
N           0.45610657363504   -0.59657972938314    2.41630991902912
H           0.86546900200896   -0.80448015380729    3.32134100289463
H          -0.59884593672448   -0.55332187569155    2.42388648350282
H           0.72383992812165    0.32640664116195    2.05508552918710
