    23
        -45.37005363  Gyration_radius:  2.33352716047 Dipole_moment: 4.331
 S          -0.24489451001235   -1.01156530731385   -1.28333627658432
O           0.44730350872855    0.25837176672352   -1.42462373187857
O           0.63553003962189   -2.15427892306078   -1.48079302661668
O          -0.98486662510913   -1.10285778230848   -0.04132113633369
O          -1.31248213499651   -1.07783390932855   -2.46763188988267
H          -0.91385980255293   -1.65665905565446   -3.11173495351352
O           0.50511305399083    1.83023594631690    2.20212709237675
H           0.55807982151694    2.78634061039300    2.16568292637739
O          -1.68954084147775    1.87283509292854   -1.55391965307926
H          -2.29642885678194    1.31504447762798   -2.04452103581006
H          -0.83348976093874    1.40647005845993   -1.57285543650097
O           2.12183022398754    0.47820436266266    0.63657794077700
H           1.60082239074819    1.03830409894261    1.27255206453230
H           1.78061600757182   -0.88911207764444    0.96358062140566
H           1.64497422565073    0.55404259662351   -0.21616728431399
O          -1.80005633739726    1.20500511873494    1.09402100257026
H          -0.39709756188206    1.59606658600228    1.85424253308664
H          -1.88740487059538    1.70825465574556    0.26396749395066
H          -1.63099122345929    0.29501824818543    0.79236816475188
N           1.31488974059724   -1.90555163386547    1.02047738511994
H           1.25169584623494   -2.23039365555800    0.01784405502100
H           0.33209187523067   -1.76155270841393    1.28028532501682
H           1.79816580134461   -2.55438856619928    1.63317780953004
