    23
        -45.37005254  Gyration_radius:  2.33359962403 Dipole_moment: 4.317
 S          -0.20841247228217    1.57141577175900    0.46843516321058
O           0.40216092641817    2.04369689181472    1.70290244784741
O           0.77557431992462    1.18945626593457   -0.53060419851153
O          -1.18641325054810    0.53006343380628    0.70783614805950
O          -0.99798332317429    2.82206643345357   -0.13086818286415
H          -0.61363728888021    3.57579533917240    0.30847043701209
O           0.45979645977057   -2.73849683228609   -0.86316253497858
H           0.74190644801969   -3.03758538972776   -1.72874102671932
O          -0.85035028078541    1.00374611762972   -2.65442849689377
H          -0.14264516682261    1.08235558702833   -1.98827029417498
H          -1.45916850448424    1.72119721380817   -2.46805064004678
O           1.99800449379528   -1.00196715144382    0.36600981081162
H           1.50461510501617   -1.72652997846249   -0.10435894349821
H           1.73601945863742   -0.17748634199540   -0.09441274938946
H           1.28699281030005   -0.80065522980214    1.60942440340832
O          -1.65149373331895   -1.22401322974893   -1.28908302096119
H          -0.38169914130863   -2.22964680892197   -1.01400226437395
H          -1.64266828701280   -0.65100592198010   -0.50218153732983
H          -1.44707968250062   -0.61211975386059   -2.01964282779269
N           0.59470065002733   -0.45258312718960    2.41761226941277
H           0.77713572131426   -0.85873022927704    3.32958006527023
H          -0.35881700716609   -0.62974149947789    2.08069748904398
H           0.66346171506301    0.60076842978015    2.39683846350590
