    23
        -45.36528545  Gyration_radius:  2.38287243025 Dipole_moment: 3.487
 S          -0.79899609886808    0.20783546014780    0.76374719997924
O           0.22278952845386    0.05099659128107    1.78145633459070
O          -0.33647945585874    1.13856798612270   -0.29239873469518
O          -1.22402664331221   -1.05332576574576    0.18262740500819
O          -2.05387254621743    0.86699678053624    1.39748651095327
H          -1.67602051883641    1.69388819373390    1.80812218080269
O           2.41452298058832   -1.23766746252126   -1.29088615540290
H           3.13164154175161   -0.70305391221406   -0.94567431099427
O          -1.44412214110980   -1.51870551916642   -2.36145343932901
H          -2.29681105750093   -1.18883871380542   -2.65077574471789
H          -1.44574871158351   -1.45930585436751   -1.37202492424543
O           1.23431567329505   -2.19432713301262    0.82962723667013
H           0.98151134688081   -1.38520619919686    1.32385779898252
H           0.38936869914292   -2.57280569438052    0.56661971427587
H           2.00060912310471   -1.68799347040893   -0.49983107547994
O           0.52600999329536    0.09699908059003   -2.33831967707130
H          -0.21867646249866   -0.57650065061383   -2.52410120925411
H           0.15720750193776    0.62310524360168   -1.45569244435070
H           1.33087959430411   -0.44893124837111   -1.99381589825653
N          -0.47440694014527    2.75350929252006    2.24874140994278
H          -0.38893202886327    3.37809859629356    3.04043884143228
H          -0.19232534986486    3.24705481218253    1.41149972853724
H           0.16156197190343    1.96960958679993    2.37074926262448
