    23
        -45.37334962  Gyration_radius:  2.368309397 Dipole_moment: 2.545
 S          -0.70528458617695    0.63805536597362   -1.97877284369934
O           0.31648612608957    1.32164265366604   -2.72303430225352
O          -0.43529184289184   -0.74557110206452   -1.66730325444152
O          -1.09086421772964    1.37394655425751   -0.75279332077031
O          -2.01601185194776    0.64663613430355   -2.89020620491481
H          -1.90203447353561    1.42324742103193   -3.43063979109312
O           1.86007742127429   -1.42152886544274    0.58864119753573
H           2.31720244672941   -1.94094281646446   -0.07427410984650
O           1.09566509585578    0.60823417684447    2.46355684760376
H           1.53426143278936   -0.24196414143904    2.33783256221461
H           1.40013616822068    1.15186520979557    1.72305183388355
O           1.48724049720342    1.15965560307671   -0.25418254258089
H           1.85948508896855    1.33460375423898   -1.12486073469818
H           0.53357916042776    1.33153795673173   -0.39440408362205
H           1.70657849629300   -0.54423370363849    0.17863037609406
O          -0.74514141382959   -2.25275219418029    0.46189761514022
H          -1.23231422100297   -0.96386164991825    1.17691067596945
H          -0.77879239861034   -1.87779950511587   -0.44537231378753
H           0.20756488100814   -2.22456035563991    0.66835207756906
N          -1.35419014319804    0.05831670168840    1.49030482255342
H          -2.19879982277265    0.20480714706006    2.03040691662224
H          -1.36689554522339    0.62735791921509    0.59241745130043
H          -0.49265627794740    0.33330773609004    2.02384114527030
