    23
        -45.37334968  Gyration_radius:  2.3682373366 Dipole_moment: 2.542
 S          -1.08315969396826    0.89549375183314    1.68612603531763
O          -1.90238240135905    2.00212577335553    1.27436138272449
O          -1.44274821668077   -0.39016214262343    1.13654123354334
O           0.35886258051573    1.15830892872960    1.47455089124299
O          -1.24832447727601    0.77075614869095    3.26910931790895
H          -1.46529723071149    1.65924135412223    3.53701400710973
O          -0.85394225450734   -0.94473769960379   -2.04958821874976
H          -1.78829209220407   -1.12894695292787   -2.15567168430194
O           1.75611632053681    0.24379243599616   -2.12086241227339
H           1.20736678905773    1.01970704298035   -1.93780611944214
H           1.15422886090893   -0.38892003864716   -2.53110058531976
O          -0.44940180390412    1.55502018589170   -1.00109237719737
H          -1.26666458309228    2.04235159468830   -0.85323662048153
H          -0.08066352761016    1.48297553865294   -0.09688697919129
H          -0.80488353575792   -0.07080061063668   -1.60777729016138
O          -0.09881635937749   -2.41292653400924    0.13372199873405
H           1.16680882854851   -1.53641584179248    0.33484082702915
H          -0.69426865535881   -1.84589203456020    0.67089960898456
H          -0.34201486546433   -2.17155229798793   -0.77936794272075
N           1.84483427096902   -0.70335248864011    0.39838945467733
H           1.99980943971612   -0.34321194869153   -0.57569472112434
H           2.71556348620205   -0.94071384990270    0.85887009436213
H           1.31726911083453    0.04785969508081    0.93466010934168
