    23
        -45.36220115  Gyration_radius:  2.33762349034 Dipole_moment: 5.451
 S          -1.18261855121927   -1.35966240918928   -0.34039703992149
O           0.09555861937190   -1.99223589226975   -0.00931362136142
O          -2.16794977779294   -1.50795913780724    0.69501776774340
O          -0.98321062734479   -0.00237340599115   -0.82277525975244
O          -1.74039081090161   -2.16040143603428   -1.60127070248970
H          -2.23852035519765   -2.85762370949673   -1.18692358782580
O           1.60226904161340    0.79183902644963    1.83128448071975
H           2.04366588562480    0.54870028452442    2.64713218505274
O          -1.80754912644802    2.16656069725550    0.54194411987031
H          -1.64660592407639    1.40052208719684   -0.04216009826568
H          -1.10398223079584    2.79309891399669    0.36303909419048
O           2.17477663257563   -0.66077325623987   -0.16602871192902
H           1.34958828332828   -1.30473695781475   -0.10524814542042
H           1.94558096464120   -0.08263069908225   -1.03892385958297
H           2.03119804534449   -0.04226757274719    0.64353771985643
O          -0.90038673853264    0.25599276267122    2.25467778404817
H          -1.36164868103445    1.04234787353892    1.90532326621727
H          -1.34901067454336   -0.49375011652138    1.82361772116077
H           0.63142498951256    0.58424145720858    1.98169264591932
N           1.32428125531410    0.61855578385202   -2.17212889132522
H           0.35705711237497    0.47563869621872   -1.85288691467580
H           1.43214950072945    0.17663583036243   -3.07532410656822
H           1.49432316745681    1.61028117991788   -2.27388587566036
