    23
        -45.36528551  Gyration_radius:  2.38289331965 Dipole_moment: 3.485
 S           0.65052297206340    0.13501467563684    0.90781254799364
O           1.77074321495147    0.30053196132598    0.00109395611759
O          -0.47528711863269    1.00859119036542    0.50190085699691
O           0.21015709681985   -1.24381962927690    1.02501930484884
O           1.06895232672696    0.60539551919168    2.32715608205665
H           1.39606671744756    1.53225301147244    2.15670844844575
O          -0.87984918730394   -0.88065998732945   -2.73409091262160
H          -0.54532984474131   -0.17835738412657   -3.29455549371061
O          -2.25498754696158   -2.03847132955585    0.85479334088733
H          -2.66521796212161   -1.91911217155463    1.71336674833265
H          -1.28767614347336   -1.86510569188040    0.98395501266574
O          -2.27102150102853   -0.07530393074666   -0.76923223983549
H          -1.78188953426849   -0.40831529141991   -1.61448312319980
H          -2.43069826500480   -0.89913879669630   -0.18724632462694
H          -1.50679446356861    0.46761623083423   -0.20997642881031
O           1.23170007683569   -1.79800840946723   -1.50754315984905
H           1.58534770663658   -1.00238551554935   -1.05503231534038
H           0.94545664339499   -2.36294651977552   -0.78281434310842
H          -0.07699784485998   -1.30884263053630   -2.31937029278876
N           1.79826610234540    2.85015828325944    1.22806365568577
H           2.08450570772449    2.22515170955765    0.47888145376690
H           2.50229023272222    3.56664884454245    1.35141355163495
H           0.93174062433656    3.28910586170491    0.94417968441687
