    23
        -45.36528551  Gyration_radius:  2.38291395304 Dipole_moment: 3.484
 S           0.28269965544175    0.46189278139471   -0.98607664672437
O          -0.75087560530940    0.96362420312762   -0.05048645761839
O           1.60796319528634    0.67199251958523   -0.43474663189216
O           0.02388685984687   -0.92312546109093   -1.33762698987042
O           0.13090889882189    1.30085147904320   -2.28376996503784
H           0.36464444674906    2.21927885984781   -1.97236624342052
O           0.21983044651172   -1.60802585049570    2.52815866968423
H           0.62244377972724   -0.98442526605822    3.13502129251622
O          -2.10585267049846   -2.25276502785722   -0.67915405383319
H          -1.27191406417566   -1.84978785259977   -1.03212556466200
H          -2.79281597628319   -2.04702303450832   -1.31589414305979
O           1.90253117752193   -1.76350495098040    0.54095918800205
H           1.47078486119650   -2.21119349373484   -0.19354451992528
H           1.97001576020821   -0.83285676053743    0.23733489995714
H           0.88796426058101   -1.75367988244817    1.79857715712593
O          -1.84736821490904   -0.72838856255347    1.34597038186921
H          -1.06182309896926   -1.11775075145362    1.88993915217239
H          -1.39816201745313    0.07334487020728    0.75691445605871
H          -2.07746823909222   -1.42531774320169    0.63584982945770
N           0.86881704680305    3.36663342594279   -0.88128966059128
H           1.47352514435538    2.67515448095636   -0.44537329059250
H           0.09602813971856    3.53644989443727   -0.25034696928965
H           1.38423621392616    4.22862211296704   -1.00592387031939
