    23
        -45.37334932  Gyration_radius:  2.36889950603 Dipole_moment: 2.541
 S           0.28771099581369    1.61309302315106   -1.46306215578675
O           0.85170595492727    0.29721977971703   -1.64912677937191
O          -0.91159717218324    1.88933334664084   -2.20508597028830
O           0.13155167254526    1.90456437662793   -0.01953160129348
O           1.38834055927933    2.65104122099509   -1.97325723513784
H           0.86874800427230    3.39018401910752   -2.27628635455591
O          -0.73075065547791   -2.27853040754666   -0.33272088534771
H          -0.78778835635385   -2.66401100469981   -1.20812693106221
O          -1.33872995514183   -1.04400683901146    2.18061664569954
H          -1.20512619262596   -1.87313431153768    1.70544372699902
H          -1.87233034569337   -0.50258545273945    1.58181832794417
O          -1.87133089265196    0.21111340555219   -0.26800669008798
H          -2.23973126379262    0.48541092931070   -1.11438037256826
H          -1.09253777786826   -1.37109361202335   -0.41823748971686
H          -1.18518780543479    0.89083461646098   -0.10726319065707
O           1.88280027058356   -1.51483003625225   -0.05035695307203
H           1.73158432205839   -0.86289019840119   -0.76925483923815
H           1.51628799076985   -0.54954844755612    1.10865141628467
H           1.07825105673172   -2.06470400982576   -0.08867974126191
N           1.01896187851067    0.17599928345253    1.72856106856973
H           0.73683336909427    0.96163477629821    1.07033852763332
H           1.60637970309215    0.51867176060618    2.47959528358791
H           0.13595462946893   -0.26376621839732    2.08835217272570
