    23
        -45.37334909  Gyration_radius:  2.36923529768 Dipole_moment: 2.529
 S          -0.09192843755698   -2.17005218700085    0.33092989215410
O           1.03602370922237   -1.54042532041426   -0.31383067463269
O           0.08963072023435   -2.50869439393493    1.71586565679895
O          -1.32042830813422   -1.37431652770753    0.10595357438650
O          -0.34590194781853   -3.54299364797115   -0.44301734912682
H          -0.71128117201332   -4.10858927529867    0.23144574529672
O           1.76127510415128    1.56887187664342    0.51834827442587
H           2.63562857582147    1.27134624214908    0.77374110720422
O          -0.93390573508610    2.54695838009331    0.53336455959458
H          -0.00028295930913    2.77270109093032    0.44169082589882
H          -0.96325655989499    1.92537273247473    1.27452386652115
O          -0.18664118928000    0.20775349893706    1.88067796616733
H           0.16389551554181   -0.43751877096575    2.50367451279707
H           1.13292690244225    0.98600810682205    0.99484335058197
H          -0.69875177006363   -0.35346276720459    1.26290493674538
O           1.33047237665630    0.48686315138033   -1.95927915044683
H           1.35012715264057   -0.39905748965090   -1.53564507336846
H          -0.20283730756324    0.68604784706149   -1.82236978876377
H           1.65273255639506    1.07064553269050   -1.24764804002966
N          -1.20670078298732    0.73222122055491   -1.43747419795171
H          -1.24912741652140    1.52561033279840   -0.75103215132352
H          -1.33895291316950   -0.16915895251471   -0.88964884175499
H          -1.90271611370055    0.82386933014910   -2.16801898116813
