    23
        -45.36528553  Gyration_radius:  2.38282146887 Dipole_moment: 3.486
 S          -0.85087024912306   -0.33447358209521    0.65598656622303
O          -0.74652830900509   -0.53479657981977   -0.80845600059801
O           0.10301663150851   -1.17841556482449    1.35043958658829
O          -0.71672516381389    1.07248609330797    0.98959377557135
O          -2.29110493526935   -0.76373444206082    1.04649528338025
H          -2.28916074789442   -1.73770350018822    0.83092536685450
O           2.76311627547176    0.84285234951020   -0.82417432622090
H           3.19354557697480    0.00326419290069   -0.99453943884855
O          -0.61606366795000    3.00744630779579   -0.73771902147811
H          -0.68719168467364    2.37300877741912    0.02047446563503
H          -1.51513556318201    3.23384672316005   -0.98265736953957
O           1.96045556098342    0.67344805638878    1.65199141172724
H           2.52480324157339    0.83848040401704    0.14698447823992
H           1.34667099926485    1.39392047796680    1.82662183903488
H           1.38644348657021   -0.12232224529941    1.64177167956723
O           0.55106880124494    1.14870346495744   -2.03185177279341
H          -0.03595314493566    0.36557338470490   -1.54796566244327
H           0.14264165675299    2.00265095146120   -1.64875067700620
H           1.48940126745990    1.06264668329119   -1.61159714823011
N          -1.62445575423277   -3.17919786551633    0.33973871804213
H          -0.73682293688123   -2.90133020047119    0.75047005475038
H          -1.52293359394968   -3.13125721758398   -0.66600582630679
H          -1.82821773689013   -4.13509665901750    0.60222400785276
