    23
        -45.37334961  Gyration_radius:  2.36832814806 Dipole_moment: 2.543
 S          -1.19105460183764   -1.67048149870421   -0.78092494326324
O          -1.73524394344517   -1.38190754146722   -2.07939331911234
O           0.24943253925994   -1.72540822611215   -0.70238262460918
O          -1.72741944975225   -0.76754030452165    0.26333757144413
O          -1.72003772090011   -3.12168988171184   -0.37780263893199
H          -2.53772105251231   -3.19787013442919   -0.86134427710329
O           1.92898077972549    1.09063134261800   -0.95405189604458
H           2.39237387917338    0.70743360866031   -1.70015545583127
O           0.21223092754441    2.65883092409765    0.72767318780319
H          -0.37997625817811    2.47164332066569   -0.01457661561908
H           1.09963541572909    2.56014746016632    0.36214169740331
O          -0.78109796558117    1.07903985730753   -1.35927019902711
H          -1.20991250432634    0.45824025153440   -0.73512348682735
H           0.97453052767268    0.98214549091867   -1.15068977999427
H          -1.03551851566780    0.71984563986811   -2.21576773379429
O           2.04313325402758   -0.82791304403619    0.99458693538780
H           0.85173520104326   -0.18468889288694    1.75349355626253
H           1.49128473515043   -1.39519150996213    0.41284800868772
H           2.29486341385938   -0.09615696381761    0.40094921534024
N          -0.08025044612800    0.29828292161521    1.99056786914154
H          -0.31628345102512    0.23387389714159    2.97376784643922
H          -0.80881718295710   -0.18584069350442    1.38644153042240
H          -0.01486760087590    1.29457397654354    1.66567554183621
