    23
        -45.37334921  Gyration_radius:  2.36887939805 Dipole_moment: 2.529
 S           0.26512425042479   -2.16296084662865   -0.27446812476258
O           1.59999548841282   -2.49281600618865   -0.69256163339661
O           0.14782502911355   -1.56326619639674    1.03348501074561
O          -0.44970061791395   -1.34359929227252   -1.27982473657271
O          -0.54549824583365   -3.53709514651692   -0.21516301580465
H          -0.08481297040876   -4.08894901718875   -0.84076802215328
O           1.20058084049895    1.53530696859456    1.42541254517571
H           1.79473574915569    1.22108791844210    2.10839081989897
O           0.09604473916252    2.57219928752334   -1.00812529568387
H           0.75898640516058    1.96023299291730   -1.35808947488410
H           0.39976798979381    2.77577773369344   -0.11518708181050
O           1.63494769725886    0.23156205132311   -0.94416371567974
H           0.86067183748472   -0.32411242335462   -1.16874312742515
H           1.37424674507288    0.97132992189748    0.64221824021204
H           2.34690708815271   -0.41524851172323   -0.89823234306577
O          -1.23133918876003    0.43648500125517    2.03443804419181
H          -1.74289407317022    0.67001735608364    0.58765017846527
H          -0.83647851077663   -0.44475027372917    1.85497598264348
H          -0.45082382133939    1.02116040630103    2.04628276752677
N          -1.80897249258750    0.74228566341380   -0.48400340126747
H          -1.20254646879487    1.54389450708894   -0.78758373233040
H          -2.76235461530079    0.84130219565529   -0.81231606947678
H          -1.36441286480134   -0.14984429017929   -0.85362382456441
