    23
        -45.37334955  Gyration_radius:  2.36859672181 Dipole_moment: 2.547
 S           2.02225310695257    0.85563480686553    0.01561765059366
O           0.93522885683263    1.46870627300909   -0.71019345903709
O           2.34365882488936    1.45399789259640    1.28216194712305
O           1.80533929917222   -0.60509467991619    0.12662446689191
O           3.31953603997259    1.00807672434741   -0.90215421919044
H           4.03141387435938    1.04469485434777   -0.26960909220412
O          -2.12488786564299    1.06085941137359    0.43328139506919
H          -2.19921202855384    2.01510558064143    0.48009410587121
O          -1.87938218889489   -1.72819975133361    1.06067342820875
H          -1.25725862535043   -1.34382809234103    1.69453121346611
H          -2.48293406496355   -1.00740078841898    0.84376820720178
O          -1.12498683549031    0.56086917752677   -2.06465725945263
H          -0.65204036488050   -0.85402816130972   -1.63660876957742
H          -1.74349795857587    0.77110634936499   -1.34038675088904
H          -0.30476035416118    1.02455651978342   -1.78729809172039
O           0.01066913154156    0.16282307404371    1.89532259800899
H           0.69450620350806   -0.20470375639373    1.29859534501166
H           0.48696217617717    0.86836314367113    2.34555713707564
H          -1.30405389500344    0.83500943334210    0.91996634245452
N          -0.24733884516200   -1.68208792407547   -1.08106596169046
H          -0.08430382605746   -2.49899289697277   -1.65779424007598
H          -0.90392776298811   -1.88490139805418   -0.28725083001537
H           0.65901709233722   -1.32056579213668   -0.65917517313639
