    23
        -45.37334908  Gyration_radius:  2.36885225582 Dipole_moment: 2.523
 S           0.44600047451526   -1.61463412535779    1.42046113724573
O           1.38168238127095   -1.21020004773442    0.39804609950089
O           0.70866856641459   -1.11232887751086    2.74112220871496
O          -0.94168679386289   -1.33910435866395    0.98285776616810
O           0.53809845173499   -3.20584154546984    1.51280754958440
H           0.32870418807237   -3.38382839228420    2.42529490996301
O           1.32175860934126    1.92302202864144   -0.61684015823563
H           2.24338930235571    1.99645997438826   -0.36523592345633
O          -1.52991014002714    2.17766464885351   -0.74917796484823
H          -1.40367160513756    2.06209047233451    0.20328051344770
H          -0.68055430191805    2.50459533842104   -1.06971875913315
O          -0.22605198507013    1.14218090871280    1.50418272570325
H          -0.58680675812612    0.24608657461431    1.34438218156508
H           0.27503015168885    1.02092413371682    2.31755429298658
H           0.85807785436549    1.57277927509704    0.17310195116940
O           1.16265036940303   -0.38155310599658   -2.08557012151393
H          -0.37212486357284   -0.46049357495743   -1.86611935912980
H           1.33329669086911    0.54490202115487   -1.83319218321375
H           1.40138106846395   -0.87334953978879   -1.26957305394719
N          -1.35495520167785   -0.42205313819934   -1.42965305682538
H          -1.58842953123571    0.58716490446497   -1.25788511068428
H          -1.25942215784392   -0.89206155779474   -0.48093037108540
H          -2.05512478001227   -0.88242202664255   -1.99919526400884
