    23
        -45.37334969  Gyration_radius:  2.36818519905 Dipole_moment: 2.547
 S           2.09684044474568    0.46546194064299   -0.45199631154299
O           2.22126100137049    1.59199929753520   -1.33571162236831
O           1.50847168613057    0.74112775104653    0.83722301961113
O           1.40871767974847   -0.67693625720254   -1.09595054846950
O           3.57860577766010   -0.05660575545527   -0.16828574210377
H           4.05765349566783    0.21106428138717   -0.94743684837089
O          -1.70915687202859    1.39589211298825    0.97544585945832
H          -1.48563779611089    2.23131695678874    1.38821592741231
O          -2.54834337897230   -0.65007182962937   -0.85222442029631
H          -2.04192610044643   -0.07489543464035   -1.44327179518022
H          -2.80497136972144   -0.07926916778972   -0.11789797979570
O          -0.25923089348712   -0.46892752045461    2.35824259930297
H          -0.95760033324141    0.16867009790922    2.11964366945426
H          -0.39923420664804   -1.49409799089817    1.20093821377078
H           0.55158259350579   -0.03923482957331    2.00796887046840
O          -0.47337947640922    1.13061799103465   -1.45613451592836
H           0.05292047115535    1.89898935682561   -1.70088519044300
H           0.19882253800792    0.41989503760333   -1.41393857390388
H          -1.17433161117654    1.35466214072764    0.15468895107315
N          -0.45152769788755   -1.94980049060458    0.22755947157388
H          -1.33429368971071   -1.61696317719107   -0.23340291846086
H          -0.40014365078972   -2.96100265170689    0.26477928355955
H           0.36490137865914   -1.54189185934942   -0.31756941883591
