    23
        -45.36220127  Gyration_radius:  2.33776163053 Dipole_moment: 5.450
 S          -1.69189116594668   -0.68572917478619   -0.17369967631587
O          -0.81764675090983   -1.81220686045187    0.15809586321061
O          -2.55561554159411   -0.30642195614177    0.91030558049116
O          -0.93683259331397    0.39942397506313   -0.77951793619477
O          -2.64590037179662   -1.21463779833804   -1.33643233834454
H          -3.37335487023128   -1.57968190394387   -0.84299351584528
O           1.92076064093527    0.07668676878528    1.68987822272759
H           2.26418794753803   -0.29272748174042    2.50544386550589
O          -0.58607236520653    2.78090899232102    0.42464697654937
H          -0.83310454289144    1.99282843291754   -0.09678119370334
H           0.30777880708038    3.00751992787963    0.16151502667970
O           1.62095698236233   -1.59118124494805   -0.19569122860315
H           1.61333458252459   -1.02415249768487   -1.10524786471303
H           1.83444251794661   -0.92947585585905    0.56267553781366
H           0.60079755070616   -1.78155066068416   -0.04654847466277
O          -0.51316969798407    0.77111169909263    2.25854477788288
H          -0.59347537158663    1.65933670654074    1.86141960215687
H          -1.28374619825920    0.28558659614969    1.91256888855924
H           0.97565149576553    0.34555719130971    1.89662341154563
N           1.29315574770107   -0.18432195413521   -2.26871510909805
H           0.39316318458898    0.14979764015079   -1.89962263269018
H           1.12097491781170   -0.67873018468313   -3.13393009026917
H           1.88560510475903    0.61205964318679   -2.46253770268221
