    23
        -45.37334953  Gyration_radius:  2.36856909625 Dipole_moment: 2.548
 S          -0.34407287179707   -2.16187939899216    0.17312541476959
O           0.52208880851177   -2.76778558042837    1.14678020841483
O          -1.28296083793741   -1.19229456599054    0.68570412023367
O           0.40944353082100   -1.59274467235579   -0.96773349666455
O          -1.21443544313752   -3.34140901726984   -0.45903744376416
H          -0.65620734959204   -4.10632065143495   -0.35214162205121
O          -0.11990741517555    1.71794436606604    1.69171915556480
H          -0.50923929205507    1.53861693587786    2.54883979815196
O           1.69921922485393    2.12521158425710   -0.49012436374724
H           2.09986157602983    1.35696584672556   -0.05899433819072
H           1.17304196935570    2.54574463940350    0.20060957058315
O           1.61930145704682   -0.26839260343380    0.96133725862822
H           1.71112376972381   -0.95732124080137    1.62790565334885
H           1.26060748093860   -0.76293596326557    0.19610883354426
H           0.42811859795191    0.93268096070540    1.48017649543105
O          -2.11078581668803    1.17256421237217   -0.10511642511588
H          -2.06085874987667    0.23484192094608    0.18289878782766
H          -1.56725536329681    1.62939321418877    0.56360767565284
H          -1.08538720965069    1.03172745596431   -1.26138607757395
N          -0.21100399932223    0.79151911531482   -1.84105793083457
H          -0.35573205977551    0.91017610333323   -2.83680027874353
H           0.01507055046812   -0.21923318682835   -1.60172136337960
H           0.57996945256822    1.38293052560905   -1.48469961206561
