    23
        -45.37334960  Gyration_radius:  2.36843484613 Dipole_moment: 2.546
 S          -1.98932917316851   -0.18260605693731   -0.91145367840215
O          -1.65529619411947    0.88891321609625   -0.00345828563244
O          -1.97655808898567    0.15539333450863   -2.30818298088403
O          -1.16667437979072   -1.37877817564180   -0.61827893519256
O          -3.48472849473459   -0.61894722393688   -0.56204226917797
H          -3.81956661531823   -0.93948669525291   -1.39471870771913
O           1.46881319381596    1.91171045447422    0.12326743928213
H           1.15909153641803    2.79049556888829   -0.10043311204858
O           2.67651169459251   -0.68873371247641    0.06934912795958
H           2.27291391518231   -0.65765715173325   -0.80973192859788
H           2.77989666775811    0.23650994472046    0.32270228061065
O           0.70468459037554    0.07830737595640   -1.76490254438594
H           1.09327474059129    1.31619330345893   -0.55914411212156
H           0.05367022148716   -0.54508561431296   -1.38238978670439
H           0.21421522042062    0.46652363265145   -2.49701881715943
O          -0.16924541158049    1.08327444226869    2.15402545915912
H           0.20726543752014   -0.40177137032567    1.90467928639182
H           0.54585572970437    1.53475567756392    1.66831514116413
H          -0.91111821407358    1.10375917089109    1.51044498313296
N           0.44918002096038   -1.33968022630267    1.43582012253857
H           1.39329256083097   -1.23819098037961    0.98762461338523
H          -0.26279562005960   -1.45448486336873    0.65477081802540
H           0.41664667220196   -2.12041406079971    2.08075590634845
