    23
        -45.36528558  Gyration_radius:  2.38287623785 Dipole_moment: 3.484
 S           0.49865006140093    0.54295734727728   -0.85047881884846
O          -0.80936986779408    0.63508561111879   -1.47101108006021
O           0.43479760651391    0.99844371431386    0.55802516415541
O           1.07603285148751   -0.78706494918665   -0.93105773759713
O           1.47480147427140    1.51175188433765   -1.57122608671059
H           0.99260550692723    2.38302557864304   -1.51218031346094
O          -1.85703633541254   -1.85642661131294    1.45912329818964
H          -2.63944261991717   -1.31500164317543    1.57694642670935
O           2.13061283484073   -2.07474475537781    1.06080214725760
H           3.03649437733272   -1.77645191883125    1.16077014540336
H           1.80066221644521   -1.67815849963004    0.21448695112082
O          -1.47362818248397   -1.89595678021636   -1.12075938459928
H          -0.59547293733629   -2.24846967390971   -1.29646672089425
H          -1.74037893707716   -1.96153765737904    0.47159537039587
H          -1.38994323171434   -0.94409443961578   -1.34395493392087
O           0.29559621673880   -0.76917128999341    2.25240599090555
H          -0.58710451046543   -1.24609083447385    2.01201129966504
H           1.04810986523950   -1.38191591399540    1.93428834254186
H           0.35377026463042    0.06462347812100    1.55006303680104
N          -0.27118675391831    3.39246936048575   -1.13199947689453
H          -0.24624945069396    3.53501852062971   -0.13043140718345
H          -0.92265122106814    2.63406233437006   -1.31705061266344
H          -0.60966923795093    4.23764711779948   -1.57390158030304
