    23
        -45.36528553  Gyration_radius:  2.38292309245 Dipole_moment: 3.487
 S          -1.00413303298486   -0.39873997599175    0.31399509554257
O          -1.39179639628515    0.97289418967825    0.58370266987267
O          -0.40362342526992   -0.50924342113558   -1.03605337164171
O          -0.10855684749763   -0.94643138660637    1.31742082054757
O          -2.27325082976825   -1.29313717320120    0.29398298882520
H          -2.84853316254710   -0.83190426319143   -0.37789746349134
O           2.48424026769804    1.68960523263600   -0.01788370414812
H           2.21587755701411    2.44605712508097   -0.54229402351666
O           2.09542575728342   -2.21945927753605    0.80808150054761
H           1.87379275119086   -3.13374416931609    0.62221380671641
H           1.26247009037706   -1.79418960251101    1.13643330987569
O           2.04700226597375   -0.55504520216560   -1.12045292063007
H           2.23784774658428   -1.25701287499007   -0.40374963679007
H           0.95586464212543   -0.53771667761834   -1.15293937146957
H           2.30582708912119    0.35553355914704   -0.71022153937522
O           0.77273391632804    1.62054129263431    1.94966966608594
H           1.89813067388548    1.69391253907458    0.79227578832369
H          -0.09005982972537    1.55306567293291    1.48720559381153
H           0.85550844972906    0.77413619775441    2.40032428967199
N          -3.25782537068095    0.36512116269480   -1.45511868310584
H          -2.70110877878841    0.21870385052290   -2.28744533023447
H          -2.76948285050504    1.04296885388634   -0.87559451592619
H          -4.15635067327290    0.74408435823166   -1.72565498948177
