    23
        -45.36220115  Gyration_radius:  2.33761253143 Dipole_moment: 5.454
 S           0.59127322669672   -1.72646681111730   -0.18982741152376
O           2.01719147088138   -1.80802240047055   -0.34808793121239
O           0.17755791886884   -1.57783729961764    1.20667581957258
O          -0.07599719937108   -0.75183504020903   -1.03810346456837
O           0.01153916429741   -3.13587758162817   -0.65819402257360
H           0.72090395285260   -3.72690441714654   -0.42707610840702
O           0.42040383615827    2.06823219404752    1.44750021996574
H           0.84027149958501    2.39688255619513    2.24451884124247
O           1.23395857570284    1.25094863015134   -2.27050913039110
H           0.76699748595897    0.44767359936152   -1.96957351839058
H           0.59985752692403    1.96787173406695   -2.21277406360397
O          -1.33640857157297    0.27921192305555    1.82361293500458
H          -0.68033775213163    1.06417589665377    1.71606846097428
H          -1.96729888159670    0.28433624243497    0.95655850322780
H          -0.72287032263643   -0.55176561275131    1.64465717699250
O           2.30057571382202    0.79563469727217    0.19183030472233
H           2.31207147844988   -0.17624264405633    0.12456781125383
H           2.19840503458922    1.09715909905607   -0.73102290681305
H           1.13869978548239    1.56910968502420    0.95459469218569
N          -2.58919901576836    0.11889495091830   -0.36441374584425
H          -2.89052682120346    0.94760404725124   -0.85961156658709
H          -3.32061539053561   -0.57712843851231   -0.42153926949346
H          -1.74645270545237   -0.25565500997882   -0.81985163573340
