    23
        -45.36528550  Gyration_radius:  2.38304288766 Dipole_moment: 3.484
 S           0.38871851406223   -1.05566597563369   -0.03113988223837
O          -0.58544038362969   -0.51127063115410    0.94356735193091
O          -0.22052428218960   -1.17313292141803   -1.34239528554069
O           1.60439011123740   -0.26131138608860   -0.03577565281831
O           0.76697063698035   -2.47060799038405    0.48442349269854
H          -0.09909068381564   -2.96094031459475    0.41612051898313
O          -0.75134899203699    2.75894646627311   -0.92483633224312
H          -1.63908424470207    2.62987365567098   -1.26316711524004
O           2.13652710442362    1.65332291477634    1.63391309893412
H           2.07760799021715    0.92167640915672    0.96778272105395
H           2.49271823866417    1.25989765239037    2.43266476986513
O          -0.39269401718785    1.88452497611064    1.43137590019181
H           0.61201090920424    1.95238382632524    1.60140729714249
H          -0.56042063208742    2.31854366908400    0.51053168032774
H          -0.53360080176934    0.81603889893040    1.25756574716707
O           0.71925101335682    1.10053688171141   -2.30021842959011
H          -0.15344741392168    2.19864074815518   -1.49791544742818
H           1.58127032473819    1.03059752177686   -1.87792007164546
H           0.30091741539685    0.23191686737620   -2.11761436838190
N          -1.70229126572810   -3.15738931773444    0.02651721169072
H          -1.57620762563650   -2.53948167597858   -0.77106788881320
H          -2.24040862654188   -2.65374549242637    0.71997030165541
H          -2.22582328909086   -3.97335480227375   -0.26378960769966
