    23
        -45.37334952  Gyration_radius:  2.3686762839 Dipole_moment: 2.546
 S          -0.29586895585541   -1.94037725591943   -0.98504544452896
O           0.93492477500396   -1.60268792144822   -0.31021513992432
O          -1.19946684730947   -2.78335777531082   -0.25138834537514
O          -0.95841406326511   -0.71469467971122   -1.48713319361055
O           0.11716371255733   -2.74932813976135   -2.29787883391454
H          -0.62851812879540   -3.32459470812426   -2.44344100528542
O           0.79324254335663    0.49178349646527    2.22669577541203
H           1.19642609670764   -0.18855220441915    2.76792779252488
O          -1.03419075700178    2.34985274279670    1.02582092844948
H          -0.34017049058705    2.22358568135608    1.68405091585156
H          -1.59860956553815    1.56850227671422    1.11253697972415
O          -1.52016547199621   -0.40805078105330    1.06817410793448
H          -1.40323657132823   -0.48012162441521    0.09866948588208
H          -1.74409505439209   -1.31101961885201    1.31691509454151
H           0.01902420605409    0.06702027672084    1.80023316492645
O           2.34137320887487    0.59850207358604   -0.02748697035538
H           2.02760094632627    0.72786060375321    0.88693197320568
H           2.04552307637311   -0.31642815990269   -0.22784917556659
H           1.20912759631045    1.30219492954645   -0.82190250856543
N           0.24905836278896    1.58753302064915   -1.21574955351280
H          -0.29117595675852    2.04346498462513   -0.43942470754192
H          -0.24086447617170    0.67362587306539   -1.44982683678782
H           0.32131181464791    2.18528691964766   -2.03061451347672
