    23
        -45.36528552  Gyration_radius:  2.3831233223 Dipole_moment: 3.483
 S          -0.24135251523359    1.07084870056264    0.24757767643843
O           0.59000409206574    0.15193388123367    1.05982766835606
O           0.45694713331727    1.44251160969768   -0.96842480713118
O          -1.54959547630196    0.49117891498690   -0.00006822479975
O          -0.45796730533195    2.33758884935387    1.11907307341028
H           0.46837250456048    2.69733933746783    1.20612397524318
O           0.43081768200618   -2.49364419401436   -1.62121963123567
H           1.34688867093994   -2.41007702293548   -1.89153317812578
O          -2.43440373664720   -1.69936271089127    1.07502125953325
H          -2.23769982561217   -0.83386469387715    0.63381769026189
H          -2.78286814177589   -1.48449856309029    1.94221152066677
O          -0.71762034530299   -0.33429726560330   -2.52847122838256
H          -0.05044269433713   -1.72059593993703   -2.03434286494828
H          -1.58688376872976   -0.25462161111357   -2.12308575828122
H          -0.19901373784876    0.38445898188558   -2.10741394897610
O           0.04885328888793   -2.23301520459417    0.87508580602251
H           0.21305168400308   -2.42685701765666   -0.12481780329784
H           0.34179838293560   -1.18894527480314    1.00083296646860
H          -0.96445032361259   -2.19682339729156    0.99733782857418
N           2.10421420239616    2.75565672832282    0.92095490664149
H           2.74844822307253    3.53476779934763    0.87494937894227
H           1.94565040612461    2.39672243224512   -0.01705425134854
H           2.52725159042799    2.01359566070209    1.46361794596375
