    23
        -45.37334957  Gyration_radius:  2.36811278221 Dipole_moment: 2.537
 S          -1.93339110178050    0.56252960924645   -0.87346324075280
O          -3.00520202124977    0.46637240305762    0.07905748456461
O          -0.91216787870181    1.53766844489182   -0.57237693112354
O          -1.31752769683718   -0.75408984429320   -1.15693717032490
O          -2.59210935860592    1.01240552406589   -2.25631059210018
H          -3.48610890441212    0.68937921049822   -2.18808036627231
O           1.15195308685535    0.92336238408185    1.90860246831337
H           0.86646198778787    1.74836952727862    2.30380923482965
O           1.59692137300687   -1.84470474043714    1.29960750076987
H           1.94546243963337   -1.05451273694779    1.72972608654675
H           0.65890703424013   -1.85875105819814    1.53750574600599
O          -0.97362852385180   -0.74659837611871    1.45480543749536
H          -1.11734575970400   -0.85065885982312    0.49184861493458
H           0.33061155093423    0.42320156586401    1.71732445964730
H          -1.81405987822056   -0.38205536455346    1.75148484149261
O           1.71199358429821    1.55899366132579   -0.69424588095514
H           0.75755094562625    1.76213336504794   -0.80677080479672
H           1.79590735784265    1.46219851128293    0.27256339687599
H           1.60238817093951    0.07134199106781   -1.12376617261128
N           1.28792957161892   -0.95302600323226   -1.22246194141420
H           1.70902496911276   -1.41758512246674   -2.01831964169447
H           0.22957190030324   -0.91386238711447   -1.31414287577919
H           1.50685712115758   -1.44211171452248   -0.31945965368042
