    23
        -45.37334956  Gyration_radius:  2.36837165854 Dipole_moment: 2.545
 S           0.36948445155958   -2.16210898661077    0.09749184285336
O           1.41461993789854   -1.21637020012939   -0.21496570884536
O           0.35466326349184   -2.65303803240502    1.44807053091421
O          -0.94744896350669   -1.62666972247713   -0.31739221137121
O           0.61151194454062   -3.42795556780759   -0.84474212331901
H           0.25976894017501   -4.15181188854976   -0.33433680649306
O           1.20213876333227    1.81822441162447    1.03790659886731
H           2.05771215372864    1.68028452357575    1.44660241439044
O          -1.60006578828398    2.18396911407180    0.55581279475082
H          -1.62063189392062    1.47076730088747    1.20966032731099
H          -0.74791409309595    2.61531587920941    0.69280694365222
O          -0.58876587501021   -0.10889925936937    1.80594276576053
H          -0.22174046786911   -0.74527353310716    2.42849455762773
H           0.65294149081120    1.05181983059112    1.30693221647099
H          -0.82190401229055   -0.67341826573283    1.04067763191286
O           1.52435122838513    1.03433668491199   -1.56514514883807
H           1.55523023491814    1.56788208048418   -0.74939516356052
H           1.67356726015778    0.12288227709558   -1.23062831377356
H          -0.00908208167767    0.87907296160286   -1.74917916905453
N          -1.04932266421204    0.65380370657073   -1.59054928166226
H          -1.06404653815127   -0.32378202799838   -1.17307357770199
H          -1.59463050168132    0.69764584467013   -2.44333566959667
H          -1.41043678928954    1.31332288888056   -0.85765544029115
