    23
        -45.36528527  Gyration_radius:  2.38261605388 Dipole_moment: 3.493
 S          -0.46457597658452   -0.47366185264921   -0.90772988463808
O          -1.39765351623557   -1.12686642060028   -0.00939833969612
O          -0.39972619310060    0.97799933878027   -0.61747861805115
O           0.86344764868961   -1.06034425780982   -0.87645036029545
O          -0.98655692720858   -0.59706851289115   -2.36480807385833
H          -1.90607273654218   -0.21669713510817   -2.29465893056336
O           1.03910265064309    0.29996562144748    2.80330531884975
H           0.25463203551149    0.55716365113957    3.29088739455276
O           3.07452708804273    0.28204896403499   -0.65774535831203
H           2.31515329902495   -0.34086117143137   -0.79066366652961
H           3.31688018999005    0.59862071036372   -1.52984548990184
O           0.41041890939929   -1.98470189046169    1.71281620953131
H           0.85530306815389   -0.61671686680633    2.44864085628838
H          -0.38313122292249   -1.76146458197502    1.18053296259722
H           1.07443699768916   -2.20102518089873    1.05051781967977
O           1.50159879821491    1.71345699142909    0.74556547061909
H           0.63223569272828    1.45226619897556    0.13890677367106
H           1.36468402282966    1.19584469204542    1.62740620368831
H           2.26479835856462    1.24568696694164    0.25413062008375
N          -3.22168195972758    0.43021669866219   -1.51271300021274
H          -3.00459790283778   -0.13373922357897   -0.69501636430421
H          -4.21336037714437    0.36993331227583   -1.70543197532170
H          -2.98986195716199    1.38994395814118   -1.29076955788213
