    23
        -45.37890791  Gyration_radius:  2.28763163481 Dipole_moment: 2.691
 S          -1.40524823080543   -0.88730341379280   -0.08375378475153
O          -0.94385705329134   -0.60706747813884   -1.44683788548551
O          -0.93161292257137   -2.16001036450439    0.40283698200081
O          -1.11603901007663    0.22952513634200    0.79766036428243
O          -2.98380650480614   -1.00191355824311   -0.16664859810352
H          -3.10447171153729   -1.94520504368525   -0.20136519897516
O           0.75801974116647    0.08864817663706    2.72932962833564
H          -0.05112840829521    0.09596227935620    2.18434279409101
O          -1.01305165210687    2.00877590456703   -2.04978280168011
H          -1.05454690480035    1.04000353999075   -1.91725381372024
H          -1.91531921837114    2.32388767220899   -1.98237877113724
O           1.63057427795481   -1.83643635136124    1.06891980966558
H           0.73210287761254   -2.17994677717987    0.88359064922575
H           1.77980480770315   -0.87526710225379   -0.12033688891569
H           1.50559705240196   -1.25560916015597    1.84778663864198
O           0.68258202625637    2.07479567517933    0.05700565168461
H           0.23348396492640    2.40428861442969   -0.74319701149735
H          -0.01505695761314    1.54416067817306    0.49118810310878
H           1.11503647651993    0.97836630398522    2.68235639938999
N           1.60912882780123   -0.18202093379825   -0.93158962946741
H           1.46586398079179    0.79606744285028   -0.53731431729724
H           0.67678823365263   -0.44193131994516   -1.33597379023921
H           2.34515631759128   -0.21176993076167   -1.62858450903787
