    23
        -45.37611112  Gyration_radius:  2.37897791857 Dipole_moment: 2.475
 S          -0.16520401146035    0.92252408683603   -1.76728809178592
O          -0.34434408033185   -0.42691402846278   -2.25179026235233
O          -1.12441504538280    1.30351289861228   -0.74170208835563
O           1.20678920029072    1.18491129839129   -1.33961551654120
O          -0.44097309756481    1.87880205867904   -3.00083275879172
H           0.02613798075130    1.41314812860819   -3.68598406870604
O           1.85718278042429   -1.93433184829669    1.14746186370161
H           2.54866070314939   -2.31405153255703    0.60324937438630
O          -2.39997330057510   -0.62155629257509    0.56520825135227
H          -2.00127427909311    0.07173568138973   -0.00630023118526
H          -3.23259131075867   -0.85853827407770    0.15460242012035
O          -0.31414375444320   -2.20187975019776   -0.25956416017537
H          -1.08984950729651   -1.84552385285501    0.20662134274932
H          -0.25588024598840   -1.66267901795299   -1.07464000655164
H           1.00460058236503   -2.11933998506978    0.65928044137029
O          -0.83469877640549    1.41178059215966    1.92717651776449
H           0.70318335374165    0.96189148715613    1.63713142343718
H          -1.01428507298965    1.65232904840155    0.99753387840702
H          -1.41393692188941    0.65846326677721    2.09053237839610
N           1.61595379503787    0.70270712258982    1.17486482691213
H           2.38578512738952    1.22578666071683    1.57733220663136
H           1.50392062667561    0.93766089394690    0.13776474916794
H           1.77935524686034   -0.34043865094652    1.24895750874302
