    23
        -45.37611113  Gyration_radius:  2.37889777808 Dipole_moment: 2.485
 S          -1.62351714277575   -1.15018183046662   -0.20743738019724
O          -1.85506601766554    0.26278945375489    0.05119770602748
O          -1.05305879085569   -1.41234283598046   -1.50883221425802
O          -0.86173740753388   -1.77335432097397    0.87216861381808
O          -3.05261817601742   -1.83572526628559   -0.20086748709138
H          -2.84556438882652   -2.66758406132325   -0.61268435268846
O           2.87595924437568   -0.48461840681255    0.04035683316835
H           3.21545017563007   -1.36407104338072   -0.13244562385083
O          -0.54073096069733    2.04045078620225   -1.41557897251913
H          -1.09762538085340    1.36825176448402   -0.96354211459500
H          -1.02672947649816    2.30652855315285   -2.19723968257888
O           1.19631372026137   -0.02921912194382   -1.89273557945578
H           0.44010291293980   -0.64852297681606   -1.83683939269870
H           0.78968729260107    0.85074953379520   -1.81309605992028
H           2.30386915350918   -0.26125028007577   -0.74860364507875
O          -0.40253862893423    2.00981474944386    1.48550757958500
H          -1.13903242075597    1.46227624095699    1.15072617324996
H           0.55791984846364    0.73393397941303    1.80240475007557
H          -0.10994594601167    2.50687646188089    0.71280185810600
N           0.97350253879192   -0.23433191181554    1.86544348188193
H           1.22836056453567   -0.45621174620855    2.82150669278261
H           1.80543042237548   -0.31741768934040    1.21645348355858
H           0.22156885395876   -0.90684002162762    1.51133532264180
