    23
        -45.37611109  Gyration_radius:  2.37897418365 Dipole_moment: 2.477
 S           1.19849057564721   -1.59837405118156    0.10463352949985
O           1.40314210252433   -0.70387744690643   -1.02448167583499
O           1.56581913997933   -1.01692380636635    1.37543944185072
O          -0.15505728984298   -2.14784892849288    0.11224005762925
O           2.17829996171968   -2.82305262445757   -0.12447938152832
H           2.17400377605539   -3.21022460386108    0.74415929723326
O          -2.26333095109507    0.98307409580199    1.55590321043928
H          -2.53020095732407    0.52585257684750    2.35475079632733
O           1.59995908216974    1.89866608805076   -0.54672336675042
H           1.63662791541266    0.92645120550050   -0.68707555769632
H           2.50491289639162    2.18228794785227   -0.41051881437615
O           0.30724933604634    1.29741104299027    1.79782623987925
H           0.75597215689739    0.42721236939773    1.79703210070755
H           0.68504099312111    1.76082133437452    1.03068153143964
H          -1.29454174755767    1.19510427996391    1.68277677229066
O          -0.37141035477915    0.79634577918874   -2.37372290193921
H          -1.47652476493992    0.13128302336416   -1.37920484521657
H          -0.02741530955127    1.63137146865006   -2.03593066569219
H           0.32315323930678    0.14617412499149   -2.15206378153244
N          -1.96416959050680   -0.45358466397630   -0.64843664395703
H          -2.18712209531702    0.13607470041074    0.20176643157040
H          -1.26241452275558   -1.20148180721805   -0.34583879491641
H          -2.80048358136173   -0.88276210515506   -1.02873298936625
