    23
        -45.37611115  Gyration_radius:  2.37892713942 Dipole_moment: 2.486
 S          -1.63697107323018   -0.51903776482925    1.02623364264134
O          -1.98679165085030    0.86810647875022    0.82333348857251
O          -1.38780113157420   -1.24220357699564   -0.21145524884450
O          -0.53676138795262   -0.68485576735766    1.97290665181285
O          -2.90343135132011   -1.20643654580910    1.68646565720827
H          -3.14319871949683   -0.54555717176111    2.32688040247852
O           2.20542320431705    1.85753096524111    0.44076712740388
H           2.19916179232755    2.43614332805130    1.20472024552654
O          -0.83452529560296    0.15940734512990   -2.39531377770980
H          -1.15026096132073   -0.33074003731896   -1.60391796610397
H          -1.61644924407512    0.36995960341186   -2.90741157865120
O          -0.14794955444907    2.14394862983341   -0.62912796811953
H          -0.24774671231880    1.59443812286782   -1.42543116274778
H          -0.83926748963392    1.81179057079683   -0.02059146385018
H           1.34229568931250    2.03328471520920   -0.03220438537480
O           0.94013215821445   -1.90320319880070   -1.37907010430302
H           0.05378253215643   -1.95291126524155   -0.97141388370936
H           0.82673820030394   -1.28766180574869   -2.11253344731692
H           1.62746079989108   -1.20103244675427   -0.08059553663923
N           1.79852733199784   -0.72744016088705    0.84705838795259
H           0.86362439431576   -0.73750910179427    1.36571720633707
H           2.06740532743194    0.28502071478271    0.69575030508990
H           2.50660316158052   -1.22104165079168    1.37923341833671
