    23
        -45.37611100  Gyration_radius:  2.37900857001 Dipole_moment: 2.495
 S          -0.38867912876456   -1.71987613245386    0.94525852219058
O           1.00929283573287   -1.32712737199150    0.85418268496775
O          -1.17269146394220   -0.86698747953746    1.80875723310322
O          -0.98708213309869   -1.87650899375653   -0.37821457766139
O          -0.39569341463802   -3.15743594194596    1.61285102380757
H          -1.31171709017231   -3.22896416582913    1.85826194542226
O          -1.60407148797114    1.97424578988312   -1.43128336033960
H          -2.55819072147659    1.88870795352758   -1.45915000969294
O           1.66737919100411    1.15053195231127    1.53779332537043
H           1.41898368915673    0.20973573869642    1.39823667881327
H           1.90876130612074    1.22800871623120    2.46175393664910
O          -0.98331065955010    1.69263995958995    1.07934396700129
H          -1.20000521013339    0.78830078735631    1.38548248009049
H          -0.02420641913981    1.76896686817065    1.22181696976220
H          -1.36517188723917    1.96501713866802   -0.46074964359844
O           2.29249284988949    0.03699629015828   -1.07202065024179
H           2.41930216625245    0.82278017012168   -0.52782319325724
H           2.03405328089928   -0.65530932176729   -0.43304846048743
H           0.85393868182935    0.03538756949828   -1.83481969282194
N          -0.15152756902578   -0.13445922811463   -2.10737321641184
H          -0.51767570631452   -0.89023412451338   -1.44554666729610
H          -0.21693116171523   -0.44258167112836   -3.07121844455193
H          -0.72724996768396    0.73816551681669   -1.94249084083603
