    23
        -45.37611114  Gyration_radius:  2.37898635845 Dipole_moment: 2.480
 S           0.19654307327523    1.47949179582772   -1.33203539508317
O           0.72798006872964    0.18106383040237   -1.71757657946183
O          -1.24538913796376    1.50927225985487   -1.24306149712325
O           0.84135657254483    1.98269299488337   -0.12157248995623
O           0.59170215052271    2.47749300842212   -2.49822300756547
H           0.01222924687013    3.20594287378357   -2.30326285152311
O          -1.02950078780428   -0.19713892453044    2.72174907035044
H          -1.44074764204652    0.56381065928746    3.13444095784222
O          -0.81733772405867   -1.95348481090179   -1.40761594886898
H          -0.30720753315760   -1.13983331797115   -1.61741317282225
H          -1.33338359629944   -2.15316129934675   -2.18978753104778
O           1.81718925045295   -1.75022158219424   -0.20006029722488
H           1.58718716915768   -0.71374565156826    1.03488315670097
H           1.07576194944947   -2.35575722327914   -0.31543182281445
H           1.67869251871664   -1.07116987496222   -0.88856493021587
O          -2.17081538549723   -0.38547677853224    0.39202323073282
H          -1.82396568843364   -1.13824491268711   -0.11694690999193
H          -1.52858982375271   -0.33684157582819    1.86680292217750
H          -1.95060386631793    0.39576303168592   -0.15543632858561
N           1.35625909283210    0.13314882079890    1.62086221959680
H           1.18752855716211    0.93554880459673    0.93449699938173
H           2.12016816524799    0.35653246763584    2.24918322299290
H           0.45494339031570   -0.02568457549325    2.15254700244871
