    23
        -45.36220122  Gyration_radius:  2.3377449538 Dipole_moment: 5.448
 S          -1.53445361312544   -0.97802821288624   -0.22780023871609
O          -0.46608720062892   -1.93822944301103    0.05518094211943
O          -2.45538593493559   -0.82403185706939    0.86450603959075
O          -0.99395816712566    0.25917168346891   -0.76806950847521
O          -2.37140848720599   -1.61290941152207   -1.42716865008280
H          -3.01825467492015   -2.13328748060850   -0.96164836501528
O           1.87083817996355    0.34299317027451    1.71250174319927
H           2.27613855130747    0.00133726845759    2.51161846937903
O          -1.09423753462775    2.59705015378075    0.56243016580562
H          -1.18982070826805    1.80579722380201   -0.00220087115516
H          -0.25750253688104    2.99911495753581    0.32196837038989
O           1.88898639117595   -1.24933706697112   -0.26000874464556
H           1.97468667632840   -0.60042927496263    0.53387827560183
H           0.92183562798650   -1.63357743190378   -0.13212344197400
H           1.77718717539370   -0.64644643669585   -1.13887982788119
O          -0.65051731147306    0.54075353342866    2.28945514619954
H          -0.89458472155685    1.41837393560150    1.93828957311477
H          -1.31680153964550   -0.06052629069963    1.91037329439364
H           0.89185822691118    0.41981994242593    1.92245812009935
N           1.30764997659335    0.18017348329152   -2.26087770322505
H           1.74168280640709    1.08192938535445   -2.40661241499369
H           0.36081015443818    0.32116577199097   -1.88479469741170
H           1.23133865388653   -0.29087762308162   -3.15247567631491
