    23
        -45.37611112  Gyration_radius:  2.37901011203 Dipole_moment: 2.476
 S           1.83326381314750    0.10601820470630    0.79370523783014
O           1.80502517940518    1.43423191847614    0.22543825732184
O           0.73920859753961   -0.15412830878261    1.71690996323885
O           1.93128572974648   -0.93560548726316   -0.22586173262730
O           3.16148565139372    0.01732645988487    1.65398884888542
H           3.77782160692382    0.43404232214165    1.06161374532833
O          -1.08245908988789    0.11791117862494   -2.70679237954172
H          -0.50186063166290    0.30464678287781   -3.44604955267061
O          -1.40922917049630    1.39784379773117    1.58844142916973
H          -0.56193033925528    0.91052387273113    1.69258777354090
H          -1.35631129716086    2.15241185320087    2.17647681082740
O          -0.53212203470682    1.95654999233482   -0.95099561562725
H          -0.94910349315737    0.87487804353404   -2.06754648167994
H          -1.07391961679241    1.86065048775330   -0.14898745108977
H           0.38783094633709    1.85298157273936   -0.63239135267367
O          -1.55886725875935   -1.48990992043568    1.32405860955396
H          -2.10712281998487   -0.69793088848353    1.36810523960913
H          -0.98042318538104   -1.76185229049025   -0.17337354445916
H          -0.69658970282742   -1.20197089068785    1.68164459397985
N          -0.37208196109696   -1.80902474737161   -1.03469317617153
H          -0.70988450486440   -1.11495976569040   -1.75880963121228
H          -0.34967398279074   -2.75095974332120   -1.40952963959540
H           0.60565758396563   -1.50367443397519   -0.72793996176266
