    23
        -45.37611111  Gyration_radius:  2.37903771252 Dipole_moment: 2.479
 S          -0.87828791999361   -0.33715481408735   -1.76559304764982
O          -0.14964557866578    0.91486448533640   -1.62956733214984
O          -0.02571454436817   -1.50379523911056   -1.76545105340601
O          -1.95925059110147   -0.43518478032816   -0.78781208399136
O          -1.56726695326242   -0.28910425173859   -3.19217421400437
H          -1.79462143783440   -1.20574816576330   -3.30319361259098
O           0.09337806040643   -1.40395521541947    2.55625005846375
H          -0.31915808196571   -2.26450772491343    2.64437266917925
O           2.31342144592380    0.83656982986145   -0.64561977070139
H           2.98150258778343    0.75045622444081   -1.32694904282880
H           1.44717332828807    0.82883356095691   -1.11012855284369
O           0.21644087831367    2.46339637641215    0.53547097362371
H          -0.72199008873295    1.37403789224673    1.29983328396058
H           1.15542886908336    2.25751283132958    0.61032668147247
H          -0.02506232882053    2.15030383687977   -0.35782102076852
O           1.53472492139057   -1.57887368872281    0.39780497649901
H           0.72452308359045   -1.49083251811663    1.78589862178373
H           0.95929694624007   -1.70698474167861   -0.38384627809568
H           2.00630078552089   -0.74860230560135    0.21268685996317
N          -1.35474502171382    0.56070635120766    1.52821846342302
H          -1.66871744164409    0.15301710370105    0.59077903529898
H          -2.15556543649587    0.86724399029102    2.06946927353912
H          -0.81216550194906   -0.19219902722445    2.03704511190060
