    23
        -45.37611115  Gyration_radius:  2.37885688995 Dipole_moment: 2.490
 S           1.43795557953234   -1.06782849825833   -0.89054311333930
O           1.07833591291658   -2.04997003860246    0.10637661744201
O           0.32164803456358   -0.65319395851285   -1.72647416151740
O           2.13193329716519    0.08248205127938   -0.31656186800752
O           2.47163433776613   -1.77570932616004   -1.86147802110663
H           3.02576479863255   -2.21929849505378   -1.22863003121827
O          -0.39008788061853    1.10317283028488    2.67070998075815
H           0.24344167414851    0.91330041373820    3.36430445435791
O          -2.14166886214575   -1.08167233298426   -0.83900225727473
H          -1.22654644761990   -1.03553582674817   -1.19503091270046
H          -2.49715662985420   -1.92347870226357   -1.12706996898706
O          -0.94743759401662   -1.21353747154826    1.62799214135418
H          -0.15207376649906   -1.59057510212444    1.19920483357208
H          -0.68423720107797    0.21099379921138    2.32852252791414
H          -1.59268097013132   -1.13373675491471    0.90459864953101
O          -1.19755593336611    1.55901823014538   -1.59485619521582
H          -1.98393581437576    1.08508006396991   -1.30033874975374
H          -0.22729473250374    1.97977868985290   -0.35702353782657
H          -0.60161260509941    0.85434172610269   -1.91511870418125
N           0.54176086479106    2.01379148841140    0.36520841917428
H           0.98158676021177    2.92731486296030    0.38149347644276
H           1.24837343619899    1.26149837452990    0.08627889235239
H           0.15985374130452    1.75376393674260    1.31743752822282
