    23
        -45.37611113  Gyration_radius:  2.37897668076 Dipole_moment: 2.477
 S           1.66928654170746   -0.18631220466091    1.08661513996705
O           1.77430073066056   -0.50717972559910   -0.32864217754706
O           1.44323538184013    1.21732068275800    1.34495965360906
O           0.69335439260145   -1.04175224126916    1.75740382608495
O           3.08027234533229   -0.53401056745490    1.71944128671514
H           3.01404260918667   -0.07336763711026    2.54876202811711
O          -2.77644844197468    0.67182161012437    0.58905699224729
H          -3.02712876707762    0.93311118886632    1.47642062953120
O           0.79029893921508    1.21864955712043   -2.08747614057839
H           1.24575798426144    0.65079372928187   -1.42688909617782
H           1.44220222982332    1.85365935465830   -2.38707146078682
O          -0.05492406113980   -1.55890585439219   -1.99222660207668
H          -0.16911131611539   -0.74352753437946   -2.49405902243949
H           0.76235132514936   -1.40915588856832   -1.47846196265853
H          -1.01214911831491   -1.61809430003064   -0.67613939327953
O          -0.69433004777213    2.12818968467146    0.03339424260503
H          -0.35438070389087    1.94222917124453   -0.85871045004402
H          -2.03799757263598    1.29345556220599    0.32866898712891
H           0.04864395536638    1.89431362007164    0.62658217331186
N          -1.39101244229729   -1.56723284769500    0.30766733973792
H          -1.86343627966106   -2.42896189243715    0.55759337161806
H          -2.03440535473432   -0.73271760423209    0.40815342825449
H          -0.54842232953266   -1.40232587316955    0.94495716665450
