    23
        -45.37611113  Gyration_radius:  2.37895404839 Dipole_moment: 2.488
 S          -1.47108855817030   -1.20567759886829   -0.61879936647305
O          -2.24482854552373   -0.44994978025751    0.33930783869607
O          -0.83630593765994   -0.37894617717427   -1.63388953775335
O          -0.50907367190539   -2.09958706400205    0.02119895117679
O          -2.49917710141131   -2.13288708443016   -1.39043227611036
H          -3.02478073296448   -2.44857406794874   -0.66353351150978
O           1.35032600571047    0.46051576433693    2.54180395780362
H           1.04584498235557    0.01406837794701    3.33329714444335
O          -0.52794744288796    2.21023274398195   -1.14299056859839
H          -0.75292306520844    1.27561490104809   -1.34833283729145
H          -1.26241865566071    2.73681345527064   -1.46121090111720
O           1.70499802159825    0.47460043820811   -1.80788636310890
H           0.84548078620664    0.05544180104261   -2.00783955714608
H           1.48133767874191    1.39578962199769   -1.63163142739647
H           1.93844163547525   -0.38078858039738   -0.44225143165445
O          -0.79886256981830    1.47621478442184    1.48695695528504
H           0.54829497833224    0.93621851201503    2.18092556889472
H          -0.60126668975394    1.95989308196591    0.66656200166333
H          -1.40198274780552    0.75904000039764    1.20310196197660
N           1.81656215786511   -1.01492048356581    0.39270867877971
H           1.73368407869284   -0.44070573539481    1.27799674639780
H           2.57935934444905   -1.68011374620774    0.45509871450586
H           0.88632604934544   -1.52229318437721    0.24983922853025
