    23
        -45.37611107  Gyration_radius:  2.37894116839 Dipole_moment: 2.491
 S          -1.04465502106707   -0.99803185461201   -1.38394216021822
O          -1.81393357951765   -0.26180045083033   -0.39245273313001
O          -0.31410088287149   -0.14750959776789   -2.29528062786838
O          -0.19383330599921   -2.00756051610950   -0.75845613962126
O          -2.10359028277270   -1.78626895807814   -2.26132767444085
H          -1.56419746570406   -2.02703103057608   -3.00658971538674
O           2.83209528982747    0.27056145433564    0.64644394832059
H           3.49362265945508   -0.13593385017175    0.08469600473614
O          -1.15371137332866    2.26257751795054    0.08810807939727
H          -1.45021606475200    1.36635657097493   -0.18604681002159
H          -1.63838178584603    2.88212351488087   -0.45890871951467
O           1.26956691415670    1.55618867880290   -0.98811937288415
H           2.28491618063392    0.84559779753833    0.03870501984425
H           0.80163073581655    0.92837952940461   -1.57584032494887
H           0.55552262678306    2.01475321612701   -0.51286459290845
O          -1.25441201880796    0.25504409478699    2.18436827408180
H          -1.10894615213256    1.19654314228789    2.03550645177842
H          -1.69881973465883   -0.04846071781723    1.36911460773356
H           0.08812831107994   -0.62807806143764    1.92215116408194
N           0.83263616115729   -1.24356567240743    1.49667011867743
H           1.68473692779279   -0.66725214703285    1.24777790507747
H           0.42344944518780   -1.62183060253271    0.58415424485434
H           1.07249242555524   -2.00480207774638    2.12213308236576
