    23
        -45.37475221  Gyration_radius:  2.38792717303 Dipole_moment: 5.893
 S           1.86220969542862    0.21873812739543    0.03120278216431
O           0.94812782450076    1.32231209858017    0.27906276230796
O           2.69674395728267   -0.15531637399227    1.13686634759338
O           1.14382570921878   -0.91244168806177   -0.56967007612271
O           2.85042167001296    0.73411493831898   -1.11059808045608
H           3.69290849511687    0.41158473476593   -0.80693292970844
O          -2.69458672226588   -1.18404475722610    0.14013978398945
H          -3.19588088756316   -2.00024264951458    0.11577262988648
O           0.60477894288701    0.34034776417448    2.78557227462304
H           0.49288851954468    0.97750308998432    2.06588841108801
H           1.51446404589436    0.03329679550258    2.66370106462091
O          -0.72862536063523    2.34018843353039   -1.43628386987003
H           0.00316508576794    2.07930413329716   -0.82514603477811
H          -1.09017138992185    0.78124117478939   -1.75116914819605
H          -1.33189106075372    2.86565079960047   -0.90688488671112
O          -0.50695964464570   -1.71142829080918    1.44948632432146
H           0.16795588234167   -1.61945097875813    0.75617104284793
H          -0.25308637723488   -1.05044956963789    2.12754650361126
H          -1.92044732617831   -1.36210236174797    0.74888399382779
N          -1.08559543167099   -0.27202478818921   -1.75626635445901
H          -1.83228477698419   -0.63567977608824   -1.10138310492284
H          -0.14554233438804   -0.56145065631427   -1.34094507883784
H          -1.19241851575790   -0.63965019958707   -2.69501435683621
