    23
        -45.37475222  Gyration_radius:  2.38782703529 Dipole_moment: 5.894
 S          -1.40181371321734    0.64056721295020    1.06760707446291
O          -0.95703791832406    1.33802545262428   -0.12845259548572
O          -2.74190998531293    0.12950126669528    1.02508178615764
O          -0.40593459466671   -0.35942604244044    1.47388278267312
O          -1.38529233634240    1.73509433053126    2.22844514105848
H          -2.19147390926128    1.54311764154825    2.69670420655654
O           1.95032354122808   -1.77899903859824   -1.30862614119095
H           2.37953965495326   -2.63492110427070   -1.27303039616394
O          -2.34547118358039   -0.48404519346731   -1.58371533692900
H          -2.91502380241301   -0.50082082133264   -0.80146618054460
H          -1.81141800778350    0.31103055893452   -1.44577243249046
O          -0.51405900792210   -2.16868240975551   -0.56445226877146
H          -0.54664873355051   -1.68682931107285    0.27900894402967
H          -1.19479185188024   -1.73489953756134   -1.12084778677778
H           0.97958574140958   -1.95810437294525   -1.14411655782407
O           1.37887068983941    2.43642465004204   -0.48472759443132
H           0.44217788072470    2.17040113550393   -0.31469918896412
H           1.94219087961280    1.03716953795737    0.13557976291894
H           1.43640841905138    2.58868099214357   -1.43011965093988
N           1.99963144160187    0.08208497828438    0.57600469311082
H           1.04369261543409   -0.09301853300185    1.01824286489558
H           2.73263732025965    0.03883803825127    1.27505349641948
H           2.12581685014178   -0.65118944101021   -0.17558463173188
