    23
        -45.37475221  Gyration_radius:  2.38767993182 Dipole_moment: 5.894
 S          -0.21828814605719   -0.97468798797483    1.58603344228379
O          -1.33405038923057   -1.83667155497606    1.85254370093750
O           0.67314154753611   -1.41087359196200    0.52310430770859
O          -0.59759051402936    0.43021489282589    1.38829577547375
O           0.66840577098895   -0.98049911548542    2.91255514621777
H           0.06946277398837   -1.35109859668455    3.55280247797037
O          -0.46982785920927    1.82223263375929   -2.26617633427320
H          -0.98991535816817    2.56097519951352   -2.58532787958383
O          -1.51775314950063   -2.29780233090345   -0.81052878805940
H          -0.57052896893222   -2.16879835070437   -0.66080626994246
H          -1.86257786725465   -2.43008080526417    0.08406059065499
O           2.82293696639522   -0.17754687808772   -0.28125919496576
H           1.86888218542888    1.14525735443428   -0.24409987614924
H           2.10985977728672   -0.73942198062997    0.10961506955731
H           3.03561484387696   -0.58061290797983   -1.12541114051420
O          -2.09646881261377    0.32703591259068   -0.88875714150268
H          -2.03730847352021   -0.63472735724483   -1.06947472989720
H          -1.74549772599766    0.42692760376424    0.01204453198506
H          -1.12562387719133    1.19287612851097   -1.84748330931258
N           1.05174806192757    1.79349865108755   -0.09798777469353
H           0.39204873558048    1.28569173715210    0.57066359265698
H           0.52642116309863    1.91712340367026   -1.00763181522919
H           1.34690931561975    2.68098792058487    0.29322561868961
