    23
        -45.37475222  Gyration_radius:  2.38755059192 Dipole_moment: 5.895
 S          -1.26683052609241   -0.55195375127381   -1.26597508955410
O          -2.10665214468348   -1.70522046641699   -1.11264443215245
O          -1.52063686588300    0.53819465462987   -0.33765569791095
O           0.16630651561706   -0.87104148692711   -1.29754743502463
O          -1.59040883617323    0.03852617121791   -2.71252167705823
H          -2.05185064970678   -0.68407439002034   -3.12587450431821
O           2.27007107247140    0.02740169905981    1.87630467879797
H           3.08438699023041   -0.40916971664960    2.13001830580876
O          -2.00189022093100   -1.33246934654282    1.56860165181240
H          -2.29717040993371   -1.85792202522144    0.81137187535325
H          -1.95506850967162   -0.43666522523678    1.20569448872505
O           0.60932615217251   -1.86186195181596    1.20505898408626
H          -0.29658007998669   -1.77363754623755    1.56935956651781
H           0.50395697806151   -1.70577596727064    0.25155164987625
H           1.60253796715274   -0.70599185067156    1.74186738268495
O          -0.26069306590897    2.81795201134367   -0.26477369764563
H          -0.49184842609790    3.19879954581409    0.58481343668352
H           1.07340124230158    1.88728201337524   -0.38736436346552
H          -0.85350523326092    2.03481015696580   -0.37529208250302
N           1.71905869949590    1.06263453246528   -0.49879936598234
H           2.05351379179298    0.73961760782777    0.45125488396429
H           2.49106876070728    1.27647651284226   -1.12015189800314
H           1.11950680835890    0.27408878875351   -0.89729666067802
