    23
        -45.37475226  Gyration_radius:  2.38787950437 Dipole_moment: 5.897
 S           1.69415120547722   -0.53453179458417    0.59951502846821
O           1.40442443698953    0.83864661051500    0.21860870910819
O           2.03132846139486   -0.73726364512703    1.97941311515919
O           0.63571252915127   -1.43117203492610    0.11735135394106
O           2.99196612817969   -0.94133822471673   -0.23476599374750
H           3.50190193398030   -1.42324265085416    0.40842753131815
O          -2.90669932350950    0.12486807322479   -0.46779880680558
H          -3.72818566236448   -0.36761111212898   -0.44113793648145
O           0.19078045354324    1.14204222742261    2.62686663898331
H           0.84202892400931    0.48263402786712    2.90561439055913
H           0.53124222600885    1.43375486408690    1.76934488708666
O          -1.52228037251668   -0.65522271849147    1.59462720425188
H          -0.77754440306469   -1.11580726016026    1.17287082785039
H          -1.10326639699407    0.06190943190673    2.11548418940757
H          -2.43840579718066   -0.08686554329165    0.39090918799854
O           0.76914620593996    1.66682251038130   -2.16904537086485
H           0.41561886486502    2.54873224641646   -2.03647662789988
H           1.16041782995907    1.40391422611358   -1.30027230189182
H          -0.24336203622745    0.38808652141908   -2.15720895165792
N          -0.75080486529618   -0.49175039028611   -1.87833039518423
H          -0.85529232379969   -1.12510135025353   -2.66302232061190
H          -1.68233244519783   -0.24428400843444   -1.44285541656584
H          -0.16054557312598   -0.93722000593336   -1.10811895232674
