    23
        -45.37475218  Gyration_radius:  2.38760921756 Dipole_moment: 5.906
 S          -0.37700333272874    1.23106283940375    1.36205416252871
O           0.56702489671370    1.52023987799584    0.29456932701878
O          -1.54782207516368    2.05999349773470    1.39602113846687
O          -0.67577999714433   -0.20633238600641    1.40252588685049
O           0.41104552375925    1.52731473992890    2.71752889831530
H          -0.25050173932801    1.96637858766825    3.24232843921988
O          -0.21778799727937   -2.22320675945058   -1.91840682890081
H          -0.67806066889071   -3.03621612366026   -2.13110507201505
O          -1.56294728935925    2.02007925320867   -1.31217902418369
H          -1.97457094603388    2.28999512862747   -0.47882191634817
H          -0.62322817209463    1.97732751496183   -1.08569741757411
O           2.82452890982251    0.28966979934277   -0.12960512664769
H           3.07975742464624    0.54503964582419   -1.01838320914679
H           2.05957707332161    0.87006387177690    0.10469574073454
H           1.93297346958913   -1.05888356468626    0.08987597894307
O          -2.00979893992977   -0.60563163637340   -0.94312647076280
H          -1.72022007488696   -0.52035444325221   -0.01927827439691
H          -1.98373387143729    0.30966748569990   -1.29339087583265
H          -0.93143721462584   -1.56945278718282   -1.66387660948862
N           1.13807406316332   -1.71693203363333    0.30035079557417
H           0.40864517376663   -1.13638114626992    0.82104794975750
H           1.44430708522783   -2.50086529866995    0.86556594907221
H           0.68695871885612   -2.03257606296707   -0.60269343120475
