    23
        -45.37475220  Gyration_radius:  2.38787585714 Dipole_moment: 5.891
 S          -0.22901844741383   -0.00630988077141   -1.86138982459384
O           0.18580815533046    1.06136310720318   -2.72555273903251
O           0.84406669127516   -0.74047096371508   -1.20994059330012
O          -1.24122759188886    0.39651475114214   -0.87658784524550
O          -0.96345219735754   -1.06937899167146   -2.79755932667479
H          -1.11813128869062   -0.56523630653665   -3.59003006211266
O          -0.07803518060606    0.78241018414405    2.83936437070794
H          -0.50646501119015    1.34237364052994    3.48816795808813
O           2.16797170815812    1.61521333168336   -0.96304189029722
H           2.05436355539664    0.65638304483717   -0.89787657990685
H           1.69403236112913    1.83467920070788   -1.77777708999580
O           0.10763025421678    2.19923262843524    0.66318049096558
H           0.97814198347315    2.16572982756774    0.21349420698447
H          -0.49335288203296    1.72518276647300    0.06419170615257
H           0.10153515381651    1.37283776361265    2.05147166192812
O           0.55841242127558   -2.75404249266568    0.41922431309477
H           0.69640674316554   -2.10340869430811   -0.31198545599429
H           1.41178548800913   -2.84542564491737    0.84782560211995
H          -0.58540084105760   -1.81604068561571    1.10637131988934
N          -1.25514094237415   -1.02780675916271    1.30519380454601
H          -0.83929218761451   -0.38002379871883    2.03062985817616
H          -2.16576771734750   -1.37521510422519    1.58422494055831
H          -1.32487023759629   -0.46856091395496    0.39840117393594
