    23
        -45.37475207  Gyration_radius:  2.38768859131 Dipole_moment: 5.905
 S          -0.04927937178779    1.83699725195826   -0.36902535946253
O           0.55230741053866    1.30511303699914    0.84326678692122
O           0.85023067264000    2.50227425472533   -1.26749173515867
O          -0.87542229909939    0.81173371988903   -1.01960636686121
O          -1.08225480266015    2.94947568967484    0.12216438976629
H          -0.94252524154291    3.64615329917015   -0.51105192930315
O           0.02194473258954   -2.92862969488348   -0.30489479784423
H          -0.18172021620210   -3.66057685309537   -0.88871900542142
O           2.72066135443493    0.64342374276646   -0.65049398291331
H           2.44823800074376    1.41621054631921   -1.16568661342734
H           2.21370785664317    0.73915390175075    0.16800283175662
O           0.97008282441920   -1.03224128942982   -1.81581529651787
H           1.78006204953640   -0.59443571867969   -1.47910033585663
H           0.49901682408590   -2.25658791239574   -0.87268234858531
H           0.27864274080914   -0.35321310619864   -1.74154874799825
O          -0.70224931732407    0.05490888526273    2.75454054852495
H          -0.23773941701448    0.66022135628263    2.12617678655784
H          -1.39223438699937   -0.76968006260031    1.52776264944290
H          -0.00979460831630   -0.36174715356098    3.27138638554603
N          -1.67750881179145   -1.09287675159816    0.56679041046230
H          -1.08890966305692   -1.92329912152696    0.27954539357242
H          -1.42585584576351   -0.29457747008688   -0.09619410285814
H          -2.66940049486295   -1.29780055080994    0.52267446968612
