    23
        -45.37475218  Gyration_radius:  2.38769293001 Dipole_moment: 5.896
 S           1.70717268729309   -0.67563207923301    0.37924070450941
O           0.49269428960963   -1.36738109210815    0.78063241201397
O           2.52762508806200   -1.36581851827082   -0.57436932664563
O           1.40194656204715    0.70871243637961   -0.00456528715050
O           2.58395936194453   -0.55282687298623    1.70661646732983
H           3.45922795163578   -0.74890826085018    1.38810618213350
O          -2.23079390762482    1.46278501450342   -1.25000743723872
H          -2.46824123599551    2.18589134169557   -1.83207453573946
O           0.26333578205588   -2.23843225115059   -1.77924106482917
H           0.02478959196871   -2.18080113502082   -0.84323700070947
H           1.22957058815358   -2.18771108939561   -1.76007828524890
O          -1.27087272016572   -0.49925855733508    2.49113331614356
H          -0.54425388433348   -0.91631413849999    1.96657614039191
H          -1.13383225661429    0.89997993771042    1.66454282932172
H          -2.04098144543440   -1.05404774521163    2.35187545465753
O          -0.09015624947417    0.38267599613253   -2.26481952416873
H          -1.48685999043020    0.97881890996897   -1.71229929863024
H           0.57883277992453    0.59328315967513   -1.59196823111068
H          -0.09423971516566   -0.59674047233649   -2.30812120493746
N          -0.82018697444330    1.64132128130403    0.98521620034336
H          -1.47500011648346    1.66526403529455    0.15504578254358
H           0.12902394913893    1.31772967963443    0.61847797555600
H          -0.74276012565071    2.54741043007561    1.43331773147363
