    23
        -45.37475213  Gyration_radius:  2.38808459983 Dipole_moment: 5.895
 S           1.12172039390443   -1.08167094169254   -1.04298512149546
O           0.75173581662796   -1.43506274801125    0.31819751976908
O           0.65334167598943   -1.97406519234479   -2.06433516710807
O           0.80588439266251    0.32813406706796   -1.30690550228551
O           2.71470121766917   -1.16309319578692   -1.08521125557495
H           2.87137440168596   -1.58356096491589   -1.92466510059508
O          -2.03555345203997    1.96255557488322    0.83115349649916
H          -2.56261297076948    2.71322649441539    0.55394465425292
O          -1.64359754246566   -2.25893741443707   -0.65770230251202
H          -0.96922720760478   -2.12847770747040    0.02376099840434
H          -1.11889983659675   -2.45409548612421   -1.44723197434511
O           1.39582424337067   -0.11921669413724    2.47320741438515
H           0.93309809019925    1.18505178001880    1.60944540327461
H           0.81515288117298   -0.46420839820055    3.15440826901357
H           1.27606112981310   -0.71574408384233    1.69422045179002
O          -1.92026600580026    0.35704977367674   -1.21557130060851
H          -2.07805011777920   -0.58964400461163   -1.01549334006068
H          -2.10166004585789    1.29804913217032    0.08590805973364
H          -0.97860567618640    0.40135969375960   -1.45203434588024
N           0.60948785784571    1.81064252737083    0.82639883595743
H           0.74982909567523    1.25019671705021   -0.07161994064793
H           1.13965567889145    2.67430659098906    0.79756916746559
H          -0.42939400034674    1.98720445015154    0.91554107052380
