    23
        -45.37475226  Gyration_radius:  2.3878583455 Dipole_moment: 5.896
 S           0.76249399028774    1.69139468323365    0.26885258028885
O          -0.02960420926177    1.02684297233809    1.29146502842099
O           2.14257383537109    1.90773068226984    0.59666399258620
O           0.56462060688940    1.03979201575975   -1.03231254481059
O           0.11657378409913    3.14141153581214    0.10697434278709
H           0.88608703571600    3.69687667375833    0.03438080195112
O          -0.52938494661356   -2.71660906706650   -1.01115105570191
H          -0.36392769851828   -3.33472232366960   -1.72435129745400
O           2.14645814933859   -0.49880733800286    1.84074221484474
H           1.24627442319185   -0.16895171924471    1.97199649737204
H           2.62629793335715    0.29017998907608    1.55109969123530
O           1.69463478825845   -1.41278107496271   -0.64743394397672
H           0.35983345601808   -2.31144785249022   -0.79515566127179
H           1.44801394642531   -0.51532959034458   -0.92747227541205
H           1.97413028775083   -1.30970042291266    0.28660446445685
O          -2.56619256104241    0.45121727321422    1.13351188786736
H          -2.17532122865432   -0.09478255624687   -0.35328631749830
H          -2.71935762835207   -0.17791429982086    1.84129715464508
H          -1.65249737997808    0.79874529457840    1.27970891356586
N          -1.64566097009879   -0.32466551419528   -1.23410221976263
H          -0.76617358341078    0.28038497548844   -1.21196065595886
H          -2.19716713832208   -0.12744135744042   -2.06158670840736
H          -1.32270489247054   -1.33142296914382   -1.20448490977191
