    23
        -45.37475216  Gyration_radius:  2.38840947985 Dipole_moment: 5.887
 S           1.64163563508453    0.48046855660106   -0.77209566598573
O           2.07825090103751    1.83587376959299   -0.94815328980772
O           1.53874750806086    0.02733690822714    0.60591334362912
O           0.41031885055543    0.16172687612690   -1.50630291423889
O           2.76760632684424   -0.43394501034467   -1.43677691793232
H           3.25552598617651    0.19568589223615   -1.95780150637386
O          -2.88593211125243   -0.20959392505010    0.57047285386411
H          -3.76646928148343   -0.07301545473350    0.21816531077794
O           0.63476991571823    2.50418025103212    1.24553878673971
H           1.19698240083228    2.77528091359761    0.50599864453883
H           0.93093705019969    1.60008838010455    1.42274948434001
O           0.79784199944414   -2.34305093856770    1.39507428284568
H           0.60403543417733   -2.24103444255703    2.32902187068769
H          -0.39743848267991   -2.14747898850417    0.30240416195122
H           1.23040047897349   -1.49815858587198    1.11935198229926
O          -1.43666995542385    1.76894091866118   -0.30357275749972
H          -2.37143933621166    0.61598096454670    0.33563621774052
H          -0.85910246978268    2.19417968476751    0.36478799863730
H          -0.82070206217592    1.31591666989763   -0.90357234099975
N          -1.00584914231253   -1.76176222632646   -0.46594220697698
H          -1.83843048143738   -1.26244696258664   -0.04629719389608
H          -1.28695197530230   -2.48670638421940   -1.11651062011484
H          -0.41806717907325   -1.01846685659636   -0.95808951416962
