    23
        -45.37475216  Gyration_radius:  2.38809683172 Dipole_moment: 5.891
 S          -1.65668626513136   -0.87483633407584   -0.08847933087240
O          -0.68615437425910   -0.94227791132286   -1.16941343802085
O          -1.94589560075515   -2.11970624730722    0.56377532507589
O          -1.30850675688949    0.20711986359726    0.84157068125450
O          -3.02141849917513   -0.40901328518214   -0.77161273620488
H          -3.66169111528833   -0.96650862698169   -0.34100060015926
O           2.44558278845935    1.29622124603783    1.01357155614397
H           2.85636029506704    1.71218983241946    1.77276251702511
O           0.67045175950327   -2.77511866318720    0.30139180266686
H           0.48215774615544   -2.23628768168754   -0.48007492990788
H          -0.21248126867403   -2.99212246528062    0.63282334500404
O           1.02394877644575   -0.67633166236332    1.94521644852613
H           1.11169073900941   -1.52467292900142    1.46182654202859
H           2.00620304977617    0.46899395971617    1.36563704719333
H           0.11924842928495   -0.37884117887124    1.75092228995381
O           0.12117766837140    1.05553112827182   -2.63440100373891
H           0.91378380865365    0.73550262752007   -3.06985400817834
H          -0.28390917940941    0.26353922233675   -2.20344929611400
H           0.25261435499560    1.82934920003563   -1.20474164336832
N           0.20786444894475    2.06366249362503   -0.17881130506230
H          -0.46927517755704    1.35945181208785    0.25211649947585
H          -0.11580785805115    3.01254061130852   -0.02820833641741
H           1.15074224052968    1.89161498831035    0.26843257369587
