    23
        -45.37475219  Gyration_radius:  2.38780286749 Dipole_moment: 5.890
 S          -0.80424914597538   -0.09578605039427   -1.69052305833139
O          -2.11149125697104   -0.63742640560371   -1.92836415944588
O          -0.76518619927041    1.13610570333647   -0.91873863888635
O           0.14324417442035   -1.07276503404094   -1.13863088516589
O          -0.21786273011632    0.28340506767196   -3.12520758536965
H          -0.80389564879884   -0.18406805849682   -3.71178937465957
O           1.07821242980730   -0.72263188361325    2.64530996890223
H           1.38184647087605   -1.44257628871066    3.19991116656006
O          -2.81001327787877    0.15094089733575    0.56801537476713
H          -2.17101690807311    0.81826582785747    0.28018807182892
H          -3.03957298561790   -0.29951596763304   -0.25718269065221
O          -0.94724529926791   -1.64695027526399    1.29510647056321
H           0.22864133792541   -1.04580524233492    2.22684215706954
H          -1.73005649601633   -1.05796319390065    1.25707455824907
H          -0.59944614433829   -1.64766738204645    0.38756542146356
O           1.37646425498202    2.47153128999769   -0.26991820072946
H           0.54913608054072    2.07387177060027   -0.63636149933818
H           1.08990128897718    3.07528563497738    0.41827836227818
H           1.95873050683075    1.00450648745471    0.14315455196533
N           2.06259638719159   -0.03404813007997    0.28397243107387
H           1.80453040463972   -0.28750131683032    1.27776855502018
H           2.99478166324081   -0.35059404699563    0.04190187698237
H           1.33195112293115   -0.48861339333318   -0.34837286409848
