    23
        -45.37475217  Gyration_radius:  2.38836821219 Dipole_moment: 5.897
 S           0.18903073475529    1.83150552653122   -0.36204285592377
O          -0.68650714043285    0.97495661726220   -1.14599399764826
O          -0.46332998402729    2.87102216639592    0.38136136479585
O           1.10505552679643    1.01802781798777    0.44797469407457
O           1.12283395022540    2.57024257269414   -1.42433886018573
H           1.15144155085247    3.45819985577087   -1.08272605412951
O          -0.03959429887193   -2.60570133647478    1.37767559619122
H           0.27133379654308   -3.09516384083187    2.14046318518647
O          -2.48166714764276    1.13446123332621    0.88296845478146
H          -2.16568481708097    0.87758777265154    0.00523471645607
H          -2.07987024701465    2.00541165270751    1.01167627842858
O           0.05991931869212   -1.01462742593511   -2.65421827864995
H          -0.74524903506144   -1.50671697414618   -2.82687188420539
H          -0.22941726178976   -0.17468067640230   -2.22099678362955
H           0.98416707272153   -1.41728708141573   -1.37184458702699
O          -0.56981678402127   -0.20074687677445    2.22217880111545
H          -0.35804328528772   -1.72643058586283    1.73418822060649
H           0.10809332742417    0.32474532731887    1.76492478563248
H          -1.42046314797951    0.17512531806423    1.91204506709573
N           1.47036463884538   -1.40478102215557   -0.43761872435637
H           0.93826625548308   -2.00636354258078    0.25062217123922
H           1.39919391246875   -0.39939048808005   -0.08516167370937
H           2.43994306448082   -1.68939603007168   -0.51949962617114
