    23
        -45.38307837  Gyration_radius:  2.27816442087 Dipole_moment: 1.773
 S          -1.22917055325783   -1.34828336276862    0.44727995915511
O          -1.43526845321223   -0.79375386562342   -0.89595618397727
O          -0.15966986602548   -2.32138930960341    0.45552748323876
O          -1.08861006089189   -0.30748048861317    1.44456826262103
O          -2.55590769998717   -2.13020920102554    0.80959114771145
H          -2.43471124438660   -2.95314646177621    0.34764730066636
O           1.26776526230615    0.79619415987664    1.66679463606829
H           1.42335560825736    0.99114325642923    2.59209283625405
O           0.66345623045568    2.35716675349288   -0.54529433933527
H           1.01073245470457    2.03700591172371    0.30408254358017
H          -0.31721898435275    2.34242354685551   -0.44476364362659
O           2.21829126912245   -1.22730309965051    0.04132813191565
H           1.45262965865659   -1.80806201356480    0.24112775951713
H           1.57468016756114   -0.47447464650551   -1.19786343785911
H           2.18450808491514   -0.53433440306784    0.72159531747045
O          -1.91473446618342    1.74672778411652   -0.16348971786012
H          -1.90729935723209    0.87792246572180   -0.60407099730261
H          -1.93531771281412    1.51752607086777    0.77218750765377
H           0.37631484058613    0.36962361003326    1.62347249759727
N           0.88715955314782    0.07605303062382   -1.80012724676300
H           0.87115846350527    1.08407829774661   -1.43198838187211
H          -0.06280849003499   -0.32662116675402   -1.59632463444481
H           1.11066531509522    0.02919312151259   -2.78741678041320
