    23
        -45.38307793  Gyration_radius:  2.27809788284 Dipole_moment: 1.775
 S          -1.13242410807944    1.34273481891747    0.66594749295584
O          -0.32984690944683    2.34806480451939    0.00572676353750
O          -1.78556389897420    0.45871043691748   -0.30692671963208
O          -0.42307377901222    0.59488929926394    1.68328123577532
O          -2.29616916251546    2.11018720837269    1.41404200613612
H          -2.52117717704228    2.79064992230741    0.78824066116240
O           1.95726004678557   -0.27758466632188    1.05547134794071
H           2.51280021407400   -0.22591191247506    1.83465074810568
O           0.74946124952197   -2.37525089074731   -0.29971155512473
H           1.36173686089205   -1.83304132807303    0.22531882419771
H          -0.08857962974533   -2.39335651762433    0.21927237453772
O           1.80353523966343    1.32733032728730   -1.18976399320470
H           0.83460815647235    0.25176600228111   -1.83800254333505
H           1.10717745171459    1.89349262162479   -0.79221943181786
H           2.16881713556083    0.82609444067626   -0.44180704418571
O          -1.49772754081885   -1.84064444212279    1.05323368900236
H           1.07240118980483    0.07148215022228    1.32681156195244
H          -1.16342196101243   -1.38442787610345    1.83335103365698
H          -1.81613661818810   -1.11218852997284    0.49036193152281
N           0.05820517440542   -0.47146646448269   -1.95092463299752
H          -0.15968002711914   -0.65988213861485   -2.92247107637995
H          -0.77255513161892   -0.08721162405185   -1.43290009117661
H           0.36035325469850   -1.35443565177189   -1.42098259260303
