    23
        -45.36220122  Gyration_radius:  2.33771522303 Dipole_moment: 5.457
 S          -1.17067071766488   -1.08556694360412   -0.90345198010875
O          -0.39025165036865   -1.95432951553145   -0.02049015947949
O          -2.52977161523434   -0.91697547941898   -0.46827609050025
O          -0.45129824910309    0.14433819306972   -1.19430303621743
O          -1.24392058493300   -1.85243998545236   -2.29939968726007
H          -2.02820396061880   -2.38105637568488   -2.19266512755847
O           0.69368099777514    0.57443707737186    2.39694011789031
H           0.62885853080647    0.31386422055466    3.31749682795191
O          -1.27492588663749    2.55375789915056   -0.32204461477181
H          -1.04733198866575    1.72243868316686   -0.78148731067344
H          -0.44324940741718    2.98972692053172   -0.12787830025495
O           1.76950668969602   -1.14130872921629    0.87146892745331
H           0.88541403935625   -1.57611365474700    0.51308810966040
H           2.12163157808528   -0.60609097140098    0.01163676693217
H           1.41601320385285   -0.43724975620617    1.53294727354798
O          -1.76108342180672    0.64843676717974    1.55959841848077
H          -2.11976493674777   -0.01726263365396    0.94544106183502
H          -0.25174669884322    0.60204095001076    2.06054816867848
H          -1.80215290802356    1.48379796127814    1.05607699211335
N           2.29155717213633    0.11202124621153   -1.25906818705106
H           2.72022180048975    1.02777328095402   -1.23825291366019
H           1.28526267879303    0.21722243479372   -1.44423828136352
H           2.70222535507148   -0.42146160935574   -2.01368698564558
