    23
        -45.38307831  Gyration_radius:  2.27839326409 Dipole_moment: 1.769
 S          -0.57578291771845   -1.65698562322968   -0.67323867386010
O          -0.99840347848640   -1.01373228716049   -1.89747538573941
O           0.87892404740909   -1.57056604671001   -0.49947369337817
O          -1.28627031126326   -1.20774348206893    0.50619304921915
O          -0.91124160655750   -3.19487760058620   -0.83300024747782
H          -0.72326201188320   -3.34438227724853   -1.75364581184014
O          -1.58608308612214    1.37143076784102    0.78368165702220
H          -2.44310968195145    1.53425433568800    1.18034121823221
O           1.01543295771268    1.50001127428616    1.73694862074036
H           0.06903250400460    1.65862590959351    1.58277373059708
H           1.06965659344873    0.57629719690970    2.07721174239686
O           0.89996916946031   -1.14192595312857    2.15317854787664
H          -0.04754047315621   -1.29836742108582    2.23132522770156
H           1.09680966818497   -1.42343611087201    1.24152375266216
H          -1.51349624262362    0.39000306310653    0.68259654371686
O          -0.69701638780523    1.61819698176531   -1.82180355818463
H          -1.16545126320880    1.79847064810324   -0.98986385449946
H           0.77785818354339    1.36250187408477   -1.29611118042533
H          -0.91489443744779    0.68437943323819   -2.03146316231300
N           1.60013250546873    0.95591380677202   -0.75113895763404
H           1.45217236028050   -0.08529731608480   -0.73883222936165
H           1.50696176878684    1.28423426499493    0.26634949544098
H           2.49560213993801    1.20299455178751   -1.15607685093984
