    23
        -45.38307779  Gyration_radius:  2.2781770548 Dipole_moment: 1.767
 S           0.29014062366570   -0.63461239745173    1.74409174858016
O           0.68413843097945   -1.92022372674989    1.21250604352500
O           1.22986446702299    0.41891395490924    1.34230429684779
O          -1.08203421532646   -0.27167518959367    1.45676518396816
O           0.39702525855344   -0.74269330462838    3.31881685110154
H           1.18813085373448   -1.25942445405062    3.43044965487012
O          -1.90492267118777   -0.63440893263039   -0.99487568626557
H          -2.82142433552450   -0.91321649640919   -0.96747047436848
O          -0.64562808197843    1.73717320483751   -1.69058022414760
H          -1.26419004611513    0.98939871552042   -1.63836593926918
H          -0.68041840207220    2.16296948645936   -0.80213271948968
O           0.42703075349013   -2.05596399196100   -1.42129488988544
H          -0.49493042549331   -1.75900016972830   -1.49750083754641
H           1.20355134725650   -0.67472380536065   -1.49543213208354
H           0.55725278344799   -2.21674591224436   -0.46176111976079
O          -0.57539728185842    2.36249447737646    0.91184025464284
H          -1.29651889543612    1.83417429011392    1.27118184182000
H           0.21629377281299    1.84543075274706    1.14578908740648
H          -1.62541053544581   -0.51983516179103   -0.05286557230393
N           1.51347636610668    0.32334660268306   -1.28020833515405
H           0.72042155078311    0.97983797076365   -1.58309595253870
H           2.39738068000231    0.55880239670134   -1.71628213800836
H           1.56616799269607    0.38998168049662   -0.23187895188245
