    23
        -45.38307740  Gyration_radius:  2.27805184319 Dipole_moment: 1.774
 S          -1.85126238562483    0.31249931352939    0.06127650578045
O          -2.08773672783314   -0.95711256115577   -0.58889948644234
O          -1.24724971043393    0.12819467102574    1.38633935367717
O          -1.10779665664571    1.25918287781436   -0.74399799825638
O          -3.26997040074436    0.96614298381622    0.31177433049616
H          -3.79308583051951    0.21497162654257    0.57136852546809
O           1.01298747998507    0.35092987019462   -1.96856500745051
H           1.08049726774181    0.78796829115476   -2.81874530690981
O           2.40205882691061    0.58724098336459    0.42116938641130
H           2.16065067680089    0.57118916582196   -0.52011718792259
H           1.84959325551446    1.30162987406888    0.81674669506390
O           0.45517804033970    2.20486778570340    1.29205123638370
H           0.07578341511665    2.53047562972125    0.46823595647753
H          -0.17323329898166    1.51307789208409    1.56668945544408
H           0.19545469074787    0.70844377340047   -1.54177751712694
O           0.15719111653301   -2.18513663204510   -1.27772764110803
H          -0.76707591827277   -1.88442793071959   -1.14064750708797
H           0.58144025800538   -1.45944880926215   -1.76507451276950
H           0.67282338006277   -1.90959192900321    0.19673844033167
N           0.87695641345939   -1.41614232519597    1.12056582080496
H           0.00104913866217   -0.88843312510881    1.36649832957269
H           1.63040815695629   -0.67570141554299    0.93119768742692
H           1.14533881218226   -2.06082000022523    1.85490045173377
