    23
        -45.38307846  Gyration_radius:  2.27830787908 Dipole_moment: 1.768
 S           0.12539273565938   -1.87215302564475    0.09513564112433
O           1.39024266556520   -1.75357400700947    0.78583552472759
O          -0.97339209235627   -1.31885811239827    0.89556506546009
O           0.13418288593390   -1.33671396711439   -1.25048761283977
O          -0.16857237403139   -3.42019347896831   -0.04717038008698
H           0.15166266301300   -3.76051799770781    0.78162709651074
O           1.23360201946223    1.01009088369326   -1.57284717045567
H           1.68130011466117    1.01942710382568   -2.42008454614760
O          -1.11185804632581    2.15735039381631   -0.63659582404791
H          -1.72028815332029    1.42512960008999   -0.89273298532495
H          -0.28632001914837    1.98196992767837   -1.11858495856051
O          -2.34004985172050   -0.17286716192561   -1.11409778259898
H          -1.77525805619878   -0.57120895868956   -1.78549246286778
H          -2.06939727845971   -0.62944890182385   -0.29715246661590
H           0.84234721705905    0.10630009590611   -1.48034899521779
O           2.19939169318916    0.76038930621179    1.00506879589665
H           2.09631359571400   -0.21573654967772    0.99663487378537
H           2.12715523989956    1.02262945668423    0.07228312905328
H           0.74540686480852    1.10670574462515    1.53638197655179
N          -0.31718841909006    1.12976219916106    1.63082995009626
H          -0.70296638522612    1.68940938775904    0.80034972713330
H          -0.62057663109287    1.50348488370403    2.52254718374006
H          -0.64113038803061    0.13862315780140    1.49333624070319
