    23
        -45.38307829  Gyration_radius:  2.2781675635 Dipole_moment: 1.774
 S          -1.73993803986051    0.69047547905243   -0.15536928565633
O          -1.22444278639051    1.82192312566478   -0.89352925284896
O          -1.54204950252487   -0.56251418448805   -0.89375521222840
O          -1.24917822808826    0.59869757429627    1.20408991846158
O          -3.30489891310762    0.89543205344473   -0.04687901047565
H          -3.51873870481805    1.25167592490206   -0.90286608213595
O           1.31717890610511    0.93801054210304    1.55069482673212
H           1.45107052383603    1.40289596119902    2.37796845328601
O           1.69794523839542   -1.68914715656957    0.74560001719037
H           1.77904805594581   -0.82768172137489    1.18817265077637
H           0.80972625843256   -2.02947929564881    1.00501536899585
O           1.41957377372520    1.80809189526471   -1.07120658026855
H           1.63204762389228    1.70355332068324   -0.12887768432356
H           1.30639495857111    0.29421044433264   -1.53195926332389
H           0.45939404793469    2.01111201408791   -1.08743329732720
O          -0.90463531439180   -2.11601470012837    1.20410158404926
H          -1.24303403129893   -1.76040675302161    0.36267147542528
H           0.33833869057625    0.83969714986642    1.44761714979008
H          -1.11849807404031   -1.42164212449855    1.83705355650692
N           1.00099507270049   -0.72690126640488   -1.58179934270829
H          -0.04374819942775   -0.72281200823861   -1.46051166406319
H           1.40123775832586   -1.22573114543449   -0.71993818369434
H           1.27621088579564   -1.17344510911056   -2.44886014224868
