    23
        -45.38307850  Gyration_radius:  2.27829512672 Dipole_moment: 1.768
 S           0.68795547786477    0.94752168934970    1.46904204850276
O           0.56448713259818    2.18405266065328    0.72957113925242
O          -0.62585076616943    0.34608597281569    1.72621740276104
O           1.60972384263361   -0.00269008252840    0.88148022300677
O           1.28531390663009    1.32537140379117    2.88446632358104
H           0.85293132400195    2.15280967437646    3.06793464737502
O           1.41264357387334   -0.38979814809534   -1.69355443987390
H           2.29322014775948   -0.52559074896805   -2.04637209472123
O          -0.73383472423902   -2.07621329872406   -1.20143132448977
H          -0.47916677319985   -2.33985009187002   -0.28617242963325
H           0.06154619540809   -1.66329411592265   -1.57751143896340
O          -0.26489462960350    1.80626124849971   -1.75909057413604
H           0.38504902438363    1.13796542434461   -2.03300947087248
H          -1.41483346120997    0.89147895418715   -1.16019088048030
H           0.07620499977749    2.14729685460609   -0.90423509455225
O           0.07397634439034   -2.22059634941043    1.34645107371128
H          -0.32643575899765   -1.38782522707285    1.65500834198767
H           1.52767257132745   -0.23424405241211   -0.72346001548333
H           1.01008752554925   -2.00216846000158    1.27944153241925
N          -1.92073813096653    0.16336038621924   -0.56678968065474
H          -1.59303338977559   -0.80452698363383   -0.89532244459200
H          -2.92848993077336    0.26299247125614   -0.60404750884868
H          -1.55353448121529    0.28160078856901    0.41157465466964
