    23
        -45.38307793  Gyration_radius:  2.27811725841 Dipole_moment: 1.771
 S          -0.65453685508878   -1.12510396268331   -1.35413376568604
O           0.43936158033796   -0.25307049910574   -1.79841511991694
O          -0.15064979438240   -2.27747897594292   -0.64079112442998
O          -1.67583151794469   -0.38781685953274   -0.63953002727177
O          -1.34404864947385   -1.67121030199700   -2.66910538643496
H          -0.75275255858064   -2.36979677352017   -2.92931862937794
O          -1.21242483695199    0.11703272857179    1.88065673854980
H          -2.04231801164921    0.06311219729704    2.35683753106227
O           0.40433272880257    2.22521623453135    1.08391950990993
H          -0.02965862008247    2.39492689492988    0.21512856473243
H          -0.21559746533646    1.65690823870206    1.57104841585395
O           0.91110338972261   -1.64398169418427    1.70308095378432
H           1.72726638206063   -0.51432146741383    0.94500254217542
H           0.17158402093986   -1.13006164845803    2.06793091537591
H           0.53991692003119   -2.08036027816451    0.90602589717523
O          -0.76507465146121    2.10118668881283   -1.32093557774904
H          -1.60722276391824    1.67869323023071   -1.11894629949620
H          -1.42424183130675   -0.09169106084468    0.93724425128234
H          -0.23237685306247    1.37098909822049   -1.68433568768290
N           1.96678724461367    0.28906348295363    0.28496503707219
H           2.96595315389283    0.41902311141915    0.17696048738220
H           1.47791973111688    1.16896273341386    0.65719050635249
H           1.50250924771877    0.05977888279568   -0.63047972267448
