    23
        -45.38307842  Gyration_radius:  2.27828525461 Dipole_moment: 1.773
 S          -1.73254095643168    0.62721811149948    0.36698166233762
O          -2.20145296829470    0.05888756882602   -0.87723918866867
O          -1.28119476033685   -0.41753652824262    1.29377506328098
O          -0.73932180667395    1.66853651551842    0.20386111281631
O          -2.98344861330261    1.31307326190765    1.05093789575612
H          -3.68254575229654    0.70118548998388    0.84560025174125
O           1.20335891670391    1.18266505862342   -1.47248234959464
H           1.42561431560186    1.99998998866893   -1.92075794360503
O           2.43633002119748   -0.32295728172419    0.50422598036601
H           2.26492959274865    0.26186268809263   -0.25286186300505
H           2.03301906192487    0.13401060471078    1.27911164399109
O           0.84863675475460    0.88285129525368    2.29078127955170
H           0.45963463907173    1.40166421734253   -0.85807522542560
H           0.61509461238337    1.70232027920064    1.84090671607686
H           0.06099402682292    0.32505405786543    2.15847254732161
O          -0.24799558529090   -1.01560747297129   -2.30977262755489
H           0.36314619342530   -0.26026247044656   -2.31869239267470
H           0.20932966283414   -1.76635284798611   -0.98901399993455
H          -1.08789021435659   -0.65032461510678   -1.95672195581153
N           0.45265398540069   -1.95698787338939    0.03217410021657
H           1.36532048713240   -1.43546068099342    0.24898594010827
H           0.51515209723298   -2.94703801362066    0.23902851923123
H          -0.29682370038464   -1.48679139310055    0.60077484345554
