    23
        -45.38307839  Gyration_radius:  2.27829578068 Dipole_moment: 1.768
 S           1.65848351800183    0.69751304242606   -0.54115441736060
O           2.04238702260051   -0.60238365686377   -1.04498287618894
O           0.52156105181125    1.24544480556355   -1.29052208992698
O           1.42908341436196    0.73325619151273    0.88834152751539
O           2.87729119713513    1.66774547201590   -0.81725017070029
H           3.17962064588715    1.37033075943881   -1.66898926364794
O          -0.01635281942062   -1.19518117958686    1.89404647147485
H           0.33335937334068   -1.41441655472819    2.75893755508957
O          -2.28316870380016    0.14965715182027    1.02993592207645
H          -1.65665796666581   -0.39296559240766    1.53745629021303
H          -1.89852138245692    1.05734615235310    1.03218609810553
O          -0.77786101611416    2.35003287240013    0.78595148917856
H          -0.39336358832377    2.14560377735553   -0.08554671348181
H           0.56094384046470   -0.47381017583037    1.54052039113257
H          -0.05121187489001    2.17256722498056    1.39333467824733
O           0.22318899728066   -2.46448383285981   -0.54964194104437
H           1.01728960915136   -1.94157181069446   -0.79358187584015
H           0.12048125448433   -2.32293503979976    0.40612600634321
H          -0.85902268547836   -1.45933016534102   -1.12831430371445
N          -1.40175614351103   -0.56196180811733   -1.32499225568985
H          -0.67818995051628    0.18721112296588   -1.47130730221952
H          -1.92781646413030   -0.29962996518413   -0.42711311178481
H          -2.01976732917282   -0.64803879140464   -2.12344010768777
