    23
        -45.38307771  Gyration_radius:  2.27810889354 Dipole_moment: 1.771
 S           0.85609459239782   -1.35543992444056    0.97900274645102
O           1.08621067064467   -0.42820183671598    2.06433225853608
O          -0.57789245652888   -1.59683501535372    0.77927441724204
O           1.51986478002135   -0.99531542510901   -0.25669079079472
O           1.47739336908776   -2.74019715294343    1.42556805135003
H           1.24438252888741   -2.77578533043594    2.34739820541831
O           1.32520062154467    1.49713789667633   -1.01231403271573
H           2.15270098738395    1.75358169982176   -1.42199496532737
O          -1.20316928792849    0.92356678445802   -1.99798749648572
H          -1.05986412272984   -0.03847957651130   -2.15855593079619
H          -0.31430616061438    1.29431793140580   -1.86746844165028
O           0.28275588595548    2.03102027261621    1.49146115065682
H           0.66845418202853    1.21413266777632    1.87548228744522
H           0.74585791992046    2.14651182005376    0.64508766352851
H          -1.08686277121913    1.39298393718721    1.00883182166363
O          -0.55529766368122   -1.67264880718956   -1.90670125464464
H           1.44060432400016    0.55656394196941   -0.72880831229579
H           0.40731294103422   -1.64586692702625   -1.94180103735475
H          -0.73851879383975   -1.81671001286880   -0.96080476789268
N          -1.78751993826939    0.73725039027397    0.54220567420628
H          -1.43922537354143   -0.23759904701385    0.72801475895404
H          -1.71210538164200    0.88606039935956   -0.51794691237104
H          -2.73207086289034    0.86995129399834    0.88441491687255
