    23
        -45.38252921  Gyration_radius:  2.27565407151 Dipole_moment: 2.964
 S          -0.06793267119107   -1.87270503090071   -0.36278813573819
O          -0.62563232760297   -1.00131496273838   -1.39288109830083
O           1.18913544987353   -1.38695072424359    0.16178446670339
O          -1.05178161375011   -2.16234618112999    0.67182845463955
O           0.25173314508044   -3.25316090103627   -1.07084220048283
H          -0.61196255125409   -3.59949446280568   -1.27323689448829
O           0.92846967988746    2.29253830122495   -0.47444977176615
H           1.33729266474911    3.10175249260551   -0.78334571346034
O          -1.65551444743417    1.32720398254991   -0.55382121780681
H          -1.42303070674220    0.49348725014052   -1.01167240086454
H          -0.84040942062732    1.85993006465027   -0.58113258576423
O           1.15978628921705    0.73891071534678    1.79719605259902
H          -0.39411697383900    0.45890277522611    2.00053366438728
H           1.35886049017179   -0.09021864919591    1.31791442475633
H           1.19107584215683    1.43362781074700    1.11531137482364
O           1.65578264146110    0.22887123821860   -1.92275688780441
H           2.03336629361317   -0.34676271061050   -1.24193367084094
H           0.76870619361259   -0.15877466490220   -2.04546432532227
H           1.25709980208688    1.56538390064231   -1.07379919169009
N          -1.39701604502306    0.17299628746286    1.77970188634323
H          -1.68620250254247    0.74010606495289    0.92424359922729
H          -2.02502515472780    0.29216794313748    2.56617917951540
H          -1.35268407717994   -0.83415052933607    1.45343100134863
