    23
        -45.38252918  Gyration_radius:  2.27563834044 Dipole_moment: 2.966
 S           1.84771060872907    0.41860465069484   -0.23191364740734
O           1.40199907580883    0.23382455183756    1.14594969969311
O           2.18553695783402   -0.85546683665119   -0.85230695599320
O           0.92781537960179    1.21171349219623   -1.01699747403572
O           3.19520891370433    1.24790917066017   -0.15763970063415
H           3.80616042935622    0.63672214954635    0.24232219352002
O          -2.31304152049872    0.63842769794097    0.76494845558404
H          -3.12383116646488    0.99870611164623    1.12575461377955
O          -0.65929756957880   -1.43905201180642    1.51832447208163
H          -1.38400773066152   -0.79965168778649    1.39688302711806
H           0.14967917096178   -0.89022385080604    1.57407911010006
O          -1.39123721447971    0.10147346906945   -1.78248620824111
H          -0.57270939406505    0.62960538417194   -1.69409716182357
H          -0.72952344729063   -1.30938884101995   -1.45652868210063
H          -1.91024279830795    0.31262302543014   -0.98583825200172
O          -0.28832226041326    2.26922880960314    1.12099937153125
H           0.35095881220370    1.60891259327456    1.44863365188845
H           0.00504601595716    2.39456471193440    0.20667375352203
H          -1.60189738442821    1.31612238876082    0.94065896382771
N          -0.13142235308334   -2.04625414580639   -0.97120606824843
H          -0.22645550728183   -2.96736124789901   -1.38315050460449
H          -0.40442580998069   -2.01922791612782    0.05919836028668
H           0.86629879237529   -1.69181167886283   -1.01226101784341
