    23
        -45.38252917  Gyration_radius:  2.27571633852 Dipole_moment: 2.964
 S          -1.34041835503296   -1.30901971577644   -0.36592291797046
O          -1.60874097051799    0.03685498209935   -0.86389794390937
O          -0.52083718023081   -2.06452259848848   -1.30395599390677
O          -0.81912551616239   -1.31384737988346    0.98311037999145
O          -2.73980450161461   -2.04858810034821   -0.30270692456349
H          -2.97754898658648   -2.14390252048485   -1.21987508282768
O           0.77293198491063    2.06650785076239    1.21530676729088
H           0.91858523753139    2.87163561069830    1.71324162144297
O           0.53246095088693    1.52683906111350   -1.48059570238579
H          -0.34281329892827    1.09433727760394   -1.40522028504304
H           0.69402215766580    1.91289656356126   -0.60096976951226
O           1.71349993586910   -0.52522310482292    1.38229268674335
H           0.82802982641570   -0.93879041738574    1.42325807494137
H           1.94303525819846   -0.74941396980248   -0.17706039905033
H           1.54556882442664    0.43050050598209    1.46515419029575
O          -1.67179138595600    1.16570620225351    1.52817775081102
H          -1.86443294692566    0.99130020423186    0.58767154915000
H          -1.49501077887168    0.27515363850715    1.86472091719679
H          -0.17113303918654    1.79485245570137    1.39065307774756
N           1.74538113912102   -0.77691511028803   -1.22417844427512
H           0.90628247593614   -1.41152980937048   -1.35063005357399
H           2.54226946133350   -1.08470039938670   -1.76948591382972
H           1.40958969771839    0.19986877352357   -1.48908758476294
