    23
        -45.38252918  Gyration_radius:  2.27568971542 Dipole_moment: 2.967
 S          -1.28922896206505   -0.77413821363972   -1.17557037155818
O          -1.69062708832410    0.46296480949752   -0.51232781520931
O          -0.52938043008235   -0.49957517345314   -2.38787865657033
O          -0.62845644832490   -1.70010130739116   -0.28250934397437
O          -2.62614845038779   -1.48533457156870   -1.64063446355798
H          -2.95354671051364   -0.90909281027280   -2.32443056239103
O           0.76955954067672    0.59617221614556    2.32296991837149
H           0.91810725847745    0.79163934047524    3.24877930030367
O           0.27825494535658    2.17213587707049    0.11145433663691
H          -0.55616214829145    1.72178326630967   -0.13292540876174
H           0.50835578036959    1.80902717628784    0.98559547241459
O           1.87931944825956   -1.15734791206589    0.50012672485749
H           1.03017731120784   -1.57152449451022    0.24678945332703
H           1.95559865141522   -0.14256218075810   -0.72454251602483
H           1.66284946020750   -0.59463446855361    1.26498627263645
O          -1.56791489011044   -0.53152300002214    1.93623284261710
H          -1.30208323958505   -1.35493821124766    1.50152772747045
H          -0.13215550907729    0.17221016421427    2.26663911116155
H          -1.84873900524596    0.01493763357938    1.17816238696564
N           1.64978701189417    0.57960808977435   -1.44639014190707
H           1.22880328627865    1.39016853349950   -0.89616334717518
H           0.84217179977637    0.14450554471841   -1.97679191734233
H           2.40145837809074    0.86561969191138   -2.06309901229023
