    23
        -45.36220104  Gyration_radius:  2.33743999093 Dipole_moment: 5.459
 S           0.71544174290183   -1.28154394242294   -1.10127712534691
O           0.74857960307386   -0.87230653220776   -2.47835711533182
O           1.82447249909129   -0.73773176466093   -0.31539320706469
O          -0.55407770484001   -1.08052509813048   -0.42101810000165
O           0.92896033266296   -2.86154029190112   -1.10259556779933
H           1.48111182587950   -2.98474462323199   -1.86803393826203
O           0.30941889855512    2.46873853908078    0.59702028879577
H           0.88496412178457    3.23137134095387    0.51479494950190
O          -2.46661695096392    0.56780075420131   -1.35429537843190
H          -2.81780106653362    0.94335025898423   -0.54483939452769
H          -1.86290740622687   -0.15054793600330   -1.08344757400832
O           1.33432078147746    0.47643414379912    1.78397927178454
H           0.92458671806894    1.33088975485198    1.38373458189857
H           0.51661651584418   -0.11885906331326    2.14100327060279
H           1.63272130842843   -0.05076766470905    0.92857038074904
O           0.00060746624319    1.61277293708135   -1.83275158046676
H          -0.95902198099362    1.44250434024722   -1.88936015697647
H           0.18687619687745    2.12550632215083   -0.33851035235059
H           0.40806362141467    0.78544208965312   -2.14671919693105
N          -0.61380452798142   -1.03925847565076    2.32129640665790
H          -0.39768662966331   -1.91714633520460    2.77442374831738
H          -0.75374188112754   -1.21607476414603    1.31769349020430
H          -1.47108347397370   -0.67376395942249    2.71408231898772
