    23
        -45.38252913  Gyration_radius:  2.27573577981 Dipole_moment: 2.958
 S          -1.58330732242265   -1.05993924509795   -0.11230256728393
O          -0.44557403593700   -1.70876986222687    0.50067874785835
O          -1.76284733937308    0.31572890739457    0.34240888045488
O          -1.57772066177263   -1.13745272274815   -1.56715424916074
O          -2.86233218664955   -1.86026133795996    0.37022126812876
H          -3.56258463971350   -1.49589479505397   -0.16228184928437
O           1.73775362622554    1.20747554928103    1.36640444808688
H           2.30150934468307    1.64758990629725    2.00349219380245
O          -0.00281650713779    2.11885382269084   -0.57270859347382
H          -0.77675455073986    1.62448085935491   -0.23308231116057
H           0.68058420813980    2.00905981022459    0.11262188461481
O          -0.30157321667219    0.03518898924769    2.52939552109692
H          -0.99353140842132    0.35009577854574    1.91746512636705
H          -0.17745776304381   -0.87960170238369    2.23784377322036
H           0.99569866407694    0.79151449098205    1.88817631965403
O           2.01513317639923   -0.98729855818275   -0.28655087994942
H           1.32869629818906   -0.35005870781368   -1.57365721936213
H           2.13509810737830   -0.23408502690640    0.31915468034361
H           1.21940986988083   -1.44972606429259    0.04474258745652
N           0.60720549679540    0.14715491928987   -2.18081802053777
H          -0.28878121599067   -0.41186085686075   -2.09364577879463
H           0.90251253677512    0.24659680616142   -3.14520884328173
H           0.41167950931285    1.08120905006190   -1.70519509879080
