    23
        -45.38252923  Gyration_radius:  2.27570884333 Dipole_moment: 2.964
 S           1.46180861274173   -1.04091843464387   -0.65103905886988
O           1.03355348090794   -1.34687667197748    0.69592299054938
O           0.34400952095999   -0.86031129879403   -1.57268070338320
O           2.38931174470321    0.08031571114088   -0.72117176733154
O           2.26001583661973   -2.31066548741091   -1.16091623339599
H           2.63651143357827   -2.01533817964403   -1.98425901394603
O          -2.38492046251409    0.17760244957881    0.79025736220929
H          -3.30862164753203    0.10403891826404    1.03267238782979
O          -1.06954751865349    1.40166861202547   -1.30465241065692
H          -1.70580940246021    1.09182411307344   -0.63530945056291
H          -0.60908861564266    0.59095667186418   -1.60383034895525
O          -1.42160550717066   -2.11305266777837   -0.05233070147774
H          -0.96555235844497   -1.77450021942862   -0.84586738386755
H          -0.68502876590810   -2.23815965647052    0.56348647986723
H          -2.10134556152664   -0.72954001694704    0.48583008455672
O          -0.03704290559081    0.61680341675881    2.17675046561245
H           0.61073915844992    1.63935420277952    1.14295054929398
H          -0.95904935800089    0.52427263428356    1.87689211710583
H           0.41622111771095   -0.18186904005704    1.83982050945349
N           0.95662096346696    2.04555577993939    0.22003637296458
H           0.12873671146347    2.00620201045087   -0.45088103755216
H           1.66563419968230    1.35588608280706   -0.15978876904597
H           1.34444931316013    2.97675108020127    0.31810754960786
