    23
        -45.38252923  Gyration_radius:  2.2757073278 Dipole_moment: 2.968
 S           1.11456008852057    1.15402622510025   -1.03424849068412
O           0.03295803873985    1.64545917963159   -1.87752581698989
O           0.91383724781816    1.53831558836147    0.35982034863810
O           1.36868071551059   -0.26065286527226   -1.19440966494164
O           2.42733163852958    1.89718071344143   -1.51755398555378
H           2.16798860784017    2.81338425168510   -1.52748072529013
O          -0.29194049530537   -1.69659259371474    1.83866552657235
H          -0.26117053847593   -2.30126497261615    2.58083963325157
O          -1.40852448491835    0.80154560350304    1.47788653544220
H          -1.14172159818137   -0.08263803598190    1.78754458651857
H          -0.57266099514302    1.23133398606733    1.20331830710920
O           2.05633570230383   -0.62429644440741    1.36837102541410
H           0.63329618355486   -1.33892592681889    1.72938392091398
H           2.19358847775135   -0.88486008884105    0.44594949836499
H           1.75715045394188    0.29973069492580    1.27434437602568
O          -0.67409130603201   -1.97091397452153   -0.88289512872933
H          -1.64346804129212   -0.72204486665473   -1.07034686077760
H           0.15038201014569   -1.50914497492133   -1.13559123446961
H          -0.61037905670567   -2.08263174196355    0.08251016661404
N          -2.01152054623295    0.27673000244911   -1.01324760370689
H          -1.28440193204984    0.88739456046642   -1.48355909901975
H          -1.98750240450066    0.54382305955676    0.01876888133198
H          -2.92872775581464    0.38504262053378   -1.43054422602248
