    23
        -45.38252924  Gyration_radius:  2.27570743075 Dipole_moment: 2.965
 S          -0.89524095746861    1.63606463279213   -0.40668175460589
O           0.14482195471326    1.71235921957601    0.61503293652649
O          -0.50019652872802    0.84440088663368   -1.55062036543587
O          -2.16929758674225    1.22464941086461    0.16781365920051
O          -1.10504528227240    3.11243425167490   -0.94098114255095
H          -1.49432865598386    3.56041626297970   -0.19628027206044
O           2.06183761066749   -1.44513218173210   -0.06282715940052
H           2.91990113082745   -1.86605951837330   -0.12543748341929
O           0.56463715599499   -0.50794417698717    2.05772136674258
H           0.47408465406009    0.40102884811782    1.70518894166586
H           1.21098502283669   -0.93802588553664    1.46939027571117
O          -0.38650662559637   -1.82225632045581   -1.28423564527751
H          -1.28304644417280   -1.64941589223100    0.01976794718127
H          -0.47191120329349   -0.90016668728410   -1.59932548176031
H           0.52358765989262   -1.88493528129010   -0.94314860844295
O           2.11651228218551    1.00499631197167   -1.00057666137462
H           2.17117891451903   -0.52713734243622   -0.43865829419488
H           1.43316013868757    0.95356825969971   -1.68451934886067
H           1.63550558632426    1.43205618855267   -0.26671855173872
N          -1.67690343863574   -1.22482389413596    0.91473179982042
H          -2.03540516468305   -0.26266437383674    0.65302397847145
H          -0.84196381953224   -1.05618372932833    1.55615071669599
H          -2.39636641359538   -1.79722897921717    1.34118915711628
