    23
        -45.38252918  Gyration_radius:  2.27572242687 Dipole_moment: 2.966
 S           0.29187151064103   -1.42549990435263   -1.23548759992961
O           0.32871128814067   -1.78750518986704    0.17839133127216
O          -1.07318598577775   -1.42717509699770   -1.74446731640428
O           1.00773161731342   -0.20148294683504   -1.51957446226964
O           1.05668338300881   -2.57576976832023   -2.01087271466534
H           0.47992659842253   -3.32688136728628   -1.91131730031983
O           0.85136107665353    1.57298402001798    1.77336838835774
H           1.29704245943975    2.07844096894928    2.45399084600787
O          -1.17397427797727   -0.30119807756699    1.82743834664174
H          -0.66227620919849   -0.99579311706788    1.36430218342773
H          -0.52435411712005    0.39938952545383    2.01716719396024
O          -0.08694164465046    2.12838061382561   -0.76427082308970
H          -1.46750461775604    1.34524599918014   -0.63697773883102
H           0.26044247536557    2.15156735493256    0.14530722585729
H           0.40822839963228    1.40749423623185   -1.20223543076404
O           2.41770288749499   -0.27029554260742    0.75625034812896
H           2.39906184567724   -0.02708955282715   -0.18084953444392
H           1.51261698924230    0.90249560214837    1.44306904520482
H           1.78042826703831   -1.00861062149985    0.78555523796264
N          -2.15563902803838    0.55509864565170   -0.44133644589820
H          -1.96862833313836    0.23901902847317    0.55970477263409
H          -1.85902437277910   -0.25494416914643   -1.05678632929442
H          -3.12028020163519    0.82212934950863   -0.60036921354410
