    23
        -45.36220134  Gyration_radius:  2.33798106157 Dipole_moment: 5.447
 S          -1.76996532317007    0.16295274816215   -0.45129489698767
O          -2.42931438091889   -1.10868847370374   -0.56605371705941
O          -1.64812541100494    0.62155130061761    0.93371620421402
O          -0.49983743391241    0.27306070294236   -1.15086238105172
O          -2.72143519928369    1.22209704828085   -1.16879841951801
H          -3.58314852377156    0.84901980564769   -1.01328000045524
O           1.47824373776799   -1.08659301017431    1.78635547647154
H           1.48626903919456   -1.52070829068128    2.64139091819011
O           0.88983942047849   -1.87396600490807   -1.99001160962804
H           0.33256655882872   -1.08562093938642   -1.84167123776379
H           1.79585997846050   -1.59274503945997   -1.85020340266151
O          -0.29222088675801   -2.38781019496114    0.40738163008579
H           0.14352002011337   -2.51731396399906   -0.45656260632071
H           0.79203681557589   -1.57973415077244    1.24389065104887
H          -1.15793334807776   -2.00229984859408    0.18136600930128
O           0.57440920645937    1.28183891089222    1.79683621375304
H           1.01194565471606    0.35184320697397    1.84486037630284
H           0.96465684681686    1.76002349658918    0.92062565192375
H          -0.40620436539080    1.05370555617549    1.50423828962923
N           1.25957656868554    2.25318616466317   -0.43278331868696
H           0.62690503768761    1.59918245489031   -0.91225565336309
H           2.19606802746350    2.13004383833602   -0.79419517577842
H           0.95628796003810    3.19697466247485   -0.63268899164518
