    23
        -45.38252919  Gyration_radius:  2.27561699219 Dipole_moment: 2.962
 S           1.84503441582015   -0.11680150516487    0.47473009478399
O           1.46883973197618    1.06499932433715   -0.26899153949932
O           0.89111196427407   -0.44961905450368    1.52868519410029
O           2.11736085426763   -1.26978697892082   -0.37300552485500
O           3.20841848208824    0.23303866676501    1.20128820586925
H           3.48477599256901   -0.60378717192760    1.56218127485944
O          -2.24569276136046    1.12372998368911    0.19032599103987
H          -3.03992081940214    1.62247382273652    0.38481460850149
O          -1.45832619305208   -1.46515475779241    0.73186715098226
H          -1.93671313610948   -0.62695479180357    0.59969149682144
H          -0.63351096971903   -1.21041892812222    1.19399310265082
O          -0.57523665061979    0.89543302136653   -1.99753789993234
H          -0.38943533248657   -0.68457598061298   -1.93620882424598
H          -1.29753083289441    1.07673684510617   -1.36989104294385
H           0.24185152417295    1.12089548432360   -1.50933003365844
O          -0.20841695223790    1.95475749114448    1.62007370598057
H           0.42228843914776    2.18321628423528    0.92179896124671
H          -1.52716869575227    1.50223170716648    0.77035281864191
H           0.11331653889061    1.07809007384990    1.90339489345570
N          -0.18114237963401   -1.65343500941456   -1.54356827831847
H          -0.30455979609485   -2.39220323385764   -2.22630413162421
H          -0.80564231163565   -1.76748348229072   -0.68676159040367
H           0.81029890778782   -1.61538180032162   -1.17159864345667
