    23
        -45.38252921  Gyration_radius:  2.27575729705 Dipole_moment: 2.967
 S          -0.89941299969012    1.65397952553198    0.31508494922799
O          -1.45663129591152    0.83648690741396   -0.73971371482346
O          -0.54457330098350    0.88122575466687    1.50178872510111
O           0.21327594749375    2.48491135111213   -0.12524212036257
O          -2.04895250715770    2.64969244667638    0.75793548348222
H          -1.60161616847210    3.25355687763104    1.34268306285915
O           0.02597653029510   -2.51879178204065    0.01215096781985
H          -0.09232646179506   -3.46522867441268    0.09951956365119
O           1.62626630645152   -0.67956427245792    1.30715009248998
H           1.19543846845114   -1.47652933867378    0.94942384994639
H           0.88680883474203   -0.09900801250181    1.58081662215328
O           0.19064813475171   -0.76971439270484   -2.11874172234109
H           1.39089937910792    0.11105249907972   -1.55500715565429
H           0.15794810686416   -1.53960156327086   -1.52308936131589
H          -0.52975621472335   -0.18451195561311   -1.80990201709987
O          -2.06339730120201   -1.19791757798174    0.89322394982948
H          -2.30345621783794   -0.69050251347758    0.10431923450856
H          -0.80672325763846   -2.09782210335740    0.36599017593286
H          -1.58033492723510   -0.53394078318376    1.42042044263223
N           1.96506924473190    0.70871890611497   -0.88460241119398
H           2.05544804090414    0.14340998108118    0.01488455920203
H           1.35940884250591    1.54276563089197   -0.63891887013058
H           2.85999282637075    0.98733307946720   -1.27017428592144
