    23
        -45.38252881  Gyration_radius:  2.27551959822 Dipole_moment: 2.965
 S           0.60315608006383    1.33015674788478    1.22864179507566
O           0.34213739337560    1.78925075955443   -0.13230308705859
O          -0.61622397020465    1.32304657498313    2.02578169098929
O           1.32088345114303    0.07512762901038    1.26939858169876
O           1.55929173391673    2.40773115377580    1.88704753582776
H           1.00484536952196    3.17872556590911    1.95757135322539
O           0.38989105407353   -1.46348374054901   -2.01191685655656
H           0.65970811224684   -1.93056087729715   -2.80338495586147
O          -1.53276489933044    0.44981771017980   -1.50202868472864
H          -0.90882495758986    1.10038440625762   -1.11952690887791
H          -0.96457553241170   -0.24879607587019   -1.87344876025627
O           2.20223687900963    0.27421518519658   -1.24943408157741
H           2.37251931973989   -0.03047593724168   -0.34593762773023
H           1.12987091855895   -0.83055523455494   -1.79334376620333
H           1.60139839124538    1.02756794420920   -1.09721848971452
O           0.00741548809397   -2.17486915231989    0.62942870012224
H           0.14748904204379   -2.14200592232702   -0.33382303558565
H           0.61101615664090   -1.49618200448463    0.99242706549431
H          -1.33927590851035   -1.35691050830693    0.85806430141428
N          -2.02532638224219   -0.54117778550960    0.86868481532827
H          -2.94114330731459   -0.79848866943938    1.21829472410883
H          -2.05002828738231   -0.16047151155065   -0.12701471041245
H          -1.57369616468719    0.21795374249300    1.45404040127864
