    23
        -45.38252889  Gyration_radius:  2.27552356145 Dipole_moment: 2.967
 S          -1.78374056684780    0.61156899241283   -0.29459083683377
O          -1.02106991383550    1.33328415334823    0.71962223388305
O          -1.51546501086321    1.13448215813852   -1.62756854973278
O          -1.62585782058875   -0.82298351960064   -0.19996133547495
O          -3.31128607213102    0.90872057977001    0.00071332179362
H          -3.39687630647064    1.83557769830796   -0.20019623616221
O           1.71671795514521   -1.13357035179065    1.45249011139919
H           2.26644143332604   -1.54979311226423    2.11725967690440
O           1.63674560451191    1.40798442941479    0.37996342368483
H           1.86130912501239    0.57797945691878    0.83771828154345
H           0.69500293172151    1.56499367625265    0.59749710570033
O          -0.73009965922850   -0.75352141599320    2.32078441519230
H          -1.23508658193167   -1.23124164754132    1.64635403562230
H           0.81232335172247   -1.02889829792938    1.86122383275792
H          -0.82820902769388    0.17163569879810    2.02707309591810
O           0.69398598252003   -1.91357473265040   -0.99184345561581
H           1.17950658641447   -1.81877119189632   -0.15289341770945
H          -0.23727033257326   -1.71957639482790   -0.76427052620922
H           0.97676218969011   -0.55051136164014   -1.76487796991638
N           0.98680156305781    0.49272964675156   -1.98312948826069
H           1.42018711636812    0.97006753256518   -1.13375296315536
H          -0.02664052926593    0.80186761176945   -1.99856733797232
H           1.46581801194415    0.71155040168053   -2.84904740735631
