    23
        -45.38252916  Gyration_radius:  2.27576099473 Dipole_moment: 2.963
 S           1.29208263601127    1.35080604456010    0.38744950113129
O           0.62531491463619    1.47991488984033   -0.88924303295298
O           0.37625144182418    1.00934270803174    1.47199412448838
O           2.43150189659162    0.44349917598348    0.35470123506079
O           1.87483326480863    2.78336707534626    0.72985001058599
H           2.41502037576036    2.62128223702883    1.49713602978918
O          -2.38361966835237   -0.69923072481995   -0.41564710376880
H          -3.32749950135792   -0.82762673757258   -0.51567337889210
O          -0.56350954467103   -1.50140466922515    1.49722299183325
H          -0.24307419226200   -0.59788440416773    1.69645057055457
H          -1.33721043907817   -1.36753757750939    0.92065858737578
O          -1.80580563463344    1.78660174380699    0.19461919328120
H          -1.20750886927405    2.01894748164893   -0.53020416794421
H          -2.25370011532264    0.26372906295895   -0.18818416816858
H          -1.18034897572255    1.59591602256653    0.91913460254700
O          -0.21353938117466   -0.74845926544684   -2.12423167578863
H          -1.08356276450027   -0.82269975012953   -1.69299328302383
H           0.10770264788744    0.14429025136788   -1.88613256013333
H           0.76956562578084   -1.55422162284198   -1.16570586973628
N           1.31775401624003   -1.82384972591801   -0.29217588377863
H           1.87204145195645   -2.66323712976688   -0.41605333848036
H           0.60217185517761   -1.90780610872782    0.49387167339374
H           1.91513895967041   -0.98373896700464   -0.04684407739359
