    23
        -45.36220128  Gyration_radius:  2.33789658761 Dipole_moment: 5.449
 S          -1.38722923190052   -0.98087009948172   -0.69029469090968
O          -0.69169015909599   -1.85290092855468    0.25794872850140
O          -2.66791104640686   -0.53842485331504   -0.21155835446763
O          -0.50608902054700    0.06874261914721   -1.17684992130442
O          -1.68099126986168   -1.88861220992696   -1.96775407914877
H          -2.52978830983856   -2.26179112742449   -1.75277672323120
O           0.94411948140982    0.74121118238406    2.26121412319448
H           0.90396087606075    0.60939215043348    3.21020705203281
O          -0.88070374362961    2.67040558760887   -0.59535224805980
H          -0.81833053706920    1.76272996368380   -0.95038231547080
H           0.02033689587191    2.98604732909587   -0.50532884116246
O           1.62613947757032   -1.30267231295583    0.92564263061505
H           1.99626225867606   -0.94287577019417   -0.01357151439588
H           1.43505654870768   -0.47370865896432    1.50443343254617
H           0.66179029878637   -1.62692338464626    0.67259285406375
O          -1.52089712785161    1.11836018561740    1.54658986566927
H          -0.00672508711323    0.88406417388587    1.97179110058241
H          -1.46626686020922    1.88033630909695    0.93866707297916
H          -2.02230549927596    0.45007511083329    1.04547236742848
N           2.18629979494148   -0.42365379766799   -1.37606267040661
H           2.75409122779788    0.40415570216541   -1.49916354088968
H           1.19845801952353   -0.17706180137442   -1.52204185472349
H           2.45241301345422   -1.10602536944701   -2.07342247344458
