    23
        -45.38252918  Gyration_radius:  2.27571723455 Dipole_moment: 2.963
 S          -0.83215272547180    1.44357356483831    0.93155317052031
O          -1.21679134640507    1.29632835581191   -0.45465178090712
O          -0.77840360367836    0.16936281031549    1.64218537367843
O           0.39998472595170    2.19967741856421    1.11163438591825
O          -1.97872437411631    2.29118137797535    1.62152916347736
H          -1.62244059507746    2.47812571113245    2.48467579085942
O          -0.14481651508936   -2.21558601274102   -1.18909052393075
H          -0.34033440264089   -3.06819397180040   -1.57924405985226
O           1.27845588023553   -1.44331038380812    1.04526751443407
H           0.87659513534692   -1.91070072361176    0.29093496916895
H           0.53952380214530   -0.94579341516357    1.45163213661556
O           0.56425963149882    0.26538260136237   -2.17528524539103
H           0.36044773414069   -0.67619776595453   -2.03266835193320
H          -0.16312245301555    0.74786312259106   -1.73377897817556
H           1.68161995639651    0.59381381003864   -1.08966590894552
O          -2.27658935116164   -1.13833675619498   -0.10256738144536
H          -2.31845423149763   -0.29658444320770   -0.57923857321726
H          -1.00208401598749   -1.87957412589356   -0.80424411008530
H          -1.86689304902232   -0.87177777831771    0.74203970507179
N           2.14668712327219    0.72191103141811   -0.13913606226047
H           2.01489161244280   -0.19856404270099    0.38272808761379
H           1.56066943638354    1.43345671737272    0.38363435797238
H           3.11767163534688    1.00394289798039   -0.20824366918944
