    23
        -45.38252919  Gyration_radius:  2.27572082728 Dipole_moment: 2.964
 S          -1.89576605430525   -0.22312078102891    0.01443812547924
O          -1.10887147616333   -1.41463066275759    0.31876842805149
O          -1.40476828781093    0.95944349163304    0.68668349029324
O          -2.05109803875560   -0.04703896002439   -1.42341729170349
O          -3.34780658510591   -0.48844146881567    0.58897597276070
H          -3.68163288739736   -1.18069145329883    0.02672356097021
O           2.20369919929088    0.11293485389455    1.21476414024882
H           2.96544380983210    0.09345401256192    1.79507854612068
O           1.32340456839544   -1.55516913422664   -0.79969134062489
H           0.44207112372548   -1.71284222352942   -0.40325985676990
H           1.82276484865842   -1.08061293957032   -0.11092006873497
O          -0.01368207574271   -0.42076459674680    2.51245612740923
H          -0.38075157835205   -1.06396168903242    1.87699066171341
H           1.41138928490801   -0.09647773837003    1.78427186951344
H          -0.53371757213018    0.37229848478128    2.31707873314472
O           0.86838142778669    2.08127164935015   -0.19027172108769
H           0.66237361617121    1.25420642766713   -1.53499629815798
H          -0.00928054508935    1.88511019198261    0.19458492353578
H           1.49303248632464    1.54402103514743    0.32893942800780
N           0.39062498919604    0.45664477905241   -2.18789532920184
H           0.60614044427133    0.64950525916205   -3.15925877249414
H          -0.64421924128092    0.28801685423529   -2.03467128652605
H           0.88226853357863   -0.41315538205414   -1.81537203194445
