    23
        -45.38252921  Gyration_radius:  2.27572547455 Dipole_moment: 2.963
 S           1.26434466770824   -1.32998876777683   -0.52603117160888
O          -0.02948734459008   -1.37451451848407   -1.20101193379150
O           2.16669898548643   -0.39021960360207   -1.17791059126284
O           1.14566516112051   -1.11567735315401    0.89925838552621
O           1.91106844503493   -2.76467639085330   -0.70551409589227
H           2.09706098476058   -2.80550768490516   -1.63857089983000
O          -2.14413152252233    0.65465277933240    1.14856059240234
H          -2.99047950176593    0.75318439625827    1.58602353916579
O          -1.31684252717598    0.96195436639715   -1.46653170819549
H          -0.94611241904252    0.05924300667098   -1.54710787365777
H          -1.79052247004824    0.95965952100167   -0.61539458470026
O           0.46116920022559    1.32534140651390    1.77511131773262
H           0.81644776319130    0.42161471067076    1.65706776229880
H           0.87343769196754    1.86863171253130    0.33647964733801
H          -0.50574461427885    1.22081661229685    1.72413835935698
O          -1.42441964174348   -1.86400841693296    0.99293610558522
H          -1.94800992923448   -0.32368876735083    1.13356292423361
H          -1.15433109508858   -1.86090101492265    0.05524317389036
H          -0.56979102578691   -1.83709180849263    1.44724073460021
N           1.00830174546235    1.90080165939855   -0.72041731469510
H           1.42071091494191    2.76953371494037   -1.04036623254926
H           0.05036814147091    1.71006675433315   -1.14820707468447
H           1.60459839990647    1.06077370612870   -0.96855904126346
