    23
        -45.36220100  Gyration_radius:  2.33755641307 Dipole_moment: 5.455
 S          -1.23867469357423   -1.34880015646374    0.13312961476757
O          -0.08056567368591   -1.76268062361957    0.92749436418652
O          -2.37066307161961   -0.98206431516552    0.93879404883298
O          -0.85556361342561   -0.38083916736700   -0.88228348143578
O          -1.67813431348701   -2.64388901929087   -0.68613804926085
H          -2.28713273351936   -3.06004284792767   -0.08456311928383
O           1.38756452389880    1.54250231056108    1.49823810515989
H           1.68535130258365    1.70692027324074    2.39484956238712
O          -1.66000282416178    2.18756419986027   -0.83120653537645
H          -1.48958766816818    1.23450905908749   -0.95964171565567
H          -0.88238757774796    2.64581785962451   -1.15526566846870
O           2.10866597262970   -0.68371244268632    0.52248110965000
H           2.05671614910738   -0.58001040828914   -0.54357112977055
H           1.90672984976510    0.24361048778144    0.91934837353633
H           1.22994905547931   -1.21443251828055    0.73513777600773
O          -1.18731237527889    1.29336971960022    1.69580707958160
H           0.39095245101813    1.43929471098760    1.56335640364670
H          -1.52144365267942    1.82880517142797    0.95109511044428
H          -1.63469478284738    0.43430831494078    1.59099035475018
N           1.66651220677800   -0.48616981209927   -1.95698107356250
H           0.65469557691064   -0.45472834389446   -1.77454455769945
H           1.86504439944166   -1.30043639784622   -2.52293597905364
H           1.93398148258256    0.34110395581936   -2.47359060338367
