    23
        -45.38252921  Gyration_radius:  2.27572496142 Dipole_moment: 2.963
 S          -1.54808063189243    0.26877347347679   -1.08388774491667
O          -1.01030378537650    1.45885271214471   -0.43127742927326
O          -0.86437199247648    0.00314572398457   -2.34259030720561
O          -1.59638266115194   -0.87869898030907   -0.20496171383295
O          -3.05060373182503    0.60451651026304   -1.45660678043772
H          -2.96442855732008    1.26624651820301   -2.13592128111105
O           1.10512204830860   -0.08520623101191    2.26192771134987
H           1.39788837403395   -0.04876670612035    3.17314755510705
O           1.62846260921774    1.46798243177693    0.04125739238565
H           1.61781849772549    1.02849086835996    0.91049050311620
H           0.68920463236778    1.67198258829670   -0.14568076386712
O           0.70207405663310   -2.10906577114430    0.42585444239891
H          -0.22534123567691   -1.86760383980883    0.22977789104249
H           1.34771658367806   -1.36738171500820   -0.82618439644793
H           0.94778744601166   -1.55340338702044    1.18700436747176
O          -1.42162587021047    0.58447107356878    2.03158147314673
H           0.14310362976595    0.18001914217597    2.26525539399977
H          -1.32321175030122    1.19318129745794    1.27528429959241
H          -1.78109234022675   -0.20733975259622    1.60565627626575
N           1.54309822982263   -0.60810484018582   -1.54843584019081
H           0.61764791624960   -0.40525632790179   -2.02295472397561
H           2.26320062344510   -0.86925939821902   -2.21205620282468
H           1.78231790919809    0.27242460961878   -0.99668013179322
