    23
        -45.38252914  Gyration_radius:  2.27567790597 Dipole_moment: 2.968
 S          -1.67931485135653   -0.72521941416703    0.54503162032395
O          -1.73763675883219    0.52229171916503   -0.21098576403148
O          -1.60908788005751   -1.87750390945164   -0.34358255352091
O          -0.64702724337503   -0.71888009244904    1.55792290049273
O          -3.05708847905192   -0.84361177763678    1.31772422471261
H          -3.68808039211054   -0.98328698403212    0.61832830762893
O           1.78518222446713    1.76834888688416    0.17584404788352
H           2.35905560171067    2.52143279158981    0.32050406306397
O           0.24731748515603    0.94471211548369   -1.96235487048554
H           0.88064309110584    1.37155304234646   -1.35767791542378
H          -0.59034531347258    0.90420426461229   -1.45688987619031
O          -0.42031157600923    1.94927917319687    1.58589201200985
H           0.97916543496651    1.91599525575309    0.74552461234537
H          -1.04593132920632    1.71770216636270    0.87382603623232
H          -0.37951153949264    1.12493206960821    2.09227317742786
O           1.91259594393679   -0.92337866989599    0.78158472739305
H           1.36201262046744   -1.46355126683624   -0.61138642484082
H           2.08104494151890    0.02265327697346    0.62286890884514
H           1.05695972285487   -0.94847667408778    1.25486041102162
N           0.72796440572792   -1.57736988367794   -1.46060901719198
H           1.07970232284517   -2.25253161497706   -2.12961397621748
H           0.60794144417252   -0.60194913424340   -1.87441897318466
H          -0.22524985596694   -1.84734533052274   -1.08466566829409
