    23
        -45.38252871  Gyration_radius:  2.27549486651 Dipole_moment: 2.970
 S          -1.46985849463622    0.49749806380846   -1.11104516828302
O          -0.66363709968753    1.59709183967773   -0.58954204629928
O          -0.89097619160201   -0.04823912913491   -2.33146002125803
O          -1.75720858358006   -0.50972371936324   -0.11361945466928
O          -2.86561817747647    1.12362987477757   -1.52189408157276
H          -2.64674242342179    1.67880449366169   -2.26394509915922
O           1.10395475594015   -0.09607847471762    2.26120132289348
H           1.41645545278566   -0.03231668212684    3.16436256877953
O           1.91763002705034    1.05646244188485   -0.11061690099292
H           1.04485786589514    1.44701300155289   -0.32189826855013
H           1.82591045846316    0.72432454168613    0.80051900092384
O           0.21694524789203   -2.15792955529341    0.65148014611579
H           0.98692981750387   -1.71699340124424   -0.67074501322963
H           0.59745444323811   -1.59537360765806    1.34953556939085
H          -0.63623223175469   -1.73515034044360    0.42793380852918
O          -1.21071558607311    1.10034401053372    1.95186397823768
H           0.22645844563696    0.37853771585915    2.23336300826102
H          -0.99178055370859    1.59636200926987    1.14092003727588
H          -1.74244730706288    0.37054487500257    1.60121515662447
N           1.33314662588816   -1.10158972709906   -1.46914752116078
H           1.77625657537946   -0.24513028898232   -1.01392843905699
H           0.46732061410682   -0.74557003233312   -1.96557521455493
H           1.96189631922331   -1.58651790931865   -2.09897733824799
