    23
        -45.38252894  Gyration_radius:  2.2755363843 Dipole_moment: 2.966
 S           1.39210781709353    0.89583768892715   -0.94979216886743
O           0.49596924824737    1.80184852701260   -1.65569281947050
O           1.35039935034893    1.12734026945491    0.49100959159292
O           1.19444663931866   -0.49325408208462   -1.30063059975371
O           2.85908313303254    1.26594162341257   -1.41874011993988
H           2.89796316441789    2.20905211107079   -1.29262679090565
O          -0.75865034921429   -1.76739809636029    1.62563358068254
H          -0.89915695988808   -2.45161342237836    2.28098601422008
O          -1.06062079841090    0.97598388506194    1.65267059671277
H          -1.07166576825823    0.01855406306245    1.83162596526291
H          -0.13942066012628    1.16759684544014    1.38153106175216
O          -1.26813280951994   -1.53416363770758   -1.07887098774524
H          -1.22014005069931   -1.79228864527521   -0.14096801471169
H          -1.80943718965919   -0.03719587527323   -1.04634844909992
H          -0.34745679252344   -1.31268880809033   -1.32386646409976
O           1.79455889778272   -1.39789106922236    1.14560265427269
H           1.79408553399462   -0.42346037748784    1.19320456112314
H           0.22907658849415   -1.69390146812091    1.50367305597781
H           1.82047190837787   -1.55071840978721    0.18954834678335
N          -1.85058045290838    1.00801134641496   -0.84127604522507
H          -1.72262586624991    1.10951925053411    0.21246147611752
H          -2.69888384436122    1.44529304067863   -1.18230106184780
H          -0.98139073928737    1.42959524071977   -1.27683337283152
