    23
        -45.38252917  Gyration_radius:  2.27571259502 Dipole_moment: 2.971
 S          -1.41356765689729   -1.10894770088884   -0.64492711257931
O          -0.57146990799023   -1.70497184725186    0.36849763031859
O          -1.77137958765929    0.27359776820588   -0.34170704343011
O          -0.86996384348313   -1.22970104995067   -1.99117618630672
O          -2.76678157107924   -1.93227152201932   -0.63702015050943
H          -3.22644071854459   -1.60315632663210   -1.40323639160419
O           1.09250334938165    1.29877137672583    1.86156279677413
H           1.37489556418421    1.77526285270691    2.64294137126305
O           0.17277407473127    2.09857540722795   -0.61514707051559
H          -0.66337664885981    1.59144590735995   -0.56499329276384
H           0.55750518602064    2.02991659558732    0.27705981061239
O          -1.21182459534637    0.10137636306847    2.23868669625076
H           0.21770556290640    0.87667021343427    2.09049496280539
H          -1.63793273318204    0.38106176578494    1.40667003418541
H          -0.97328735305321   -0.81633250287961    2.04222911207622
O           1.99434118386565   -0.93628837547518    0.51278765308185
H           1.82096269242648   -0.35798776757002   -0.96012062165219
H           1.87081785735424   -0.16211564961553    1.09067011694002
H           1.13989488795514   -1.41132686762283    0.54602683781779
N           1.36615527457285    0.09947946590469   -1.80879589098376
H           0.99354413346077    1.04104926916496   -1.47492038072135
H           0.51043402196183   -0.48288946536825   -2.03555295185225
H           1.99449082727203    0.17878211011745   -2.60002991921087
