    23
        -45.38252920  Gyration_radius:  2.27571866173 Dipole_moment: 2.963
 S          -0.12400624939962   -1.24306355144606    1.44328364732687
O          -1.10357957834606   -0.16054645667654    1.44467002570494
O           0.06213744457043   -1.82855983594118    0.13411108944444
O           1.12249394796063   -0.82675443034850    2.07195913992611
O          -0.72310303298537   -2.38816315142913    2.35927028133841
H          -0.69895757279318   -2.00523952746660    3.23087130068247
O          -0.91932763734338    0.99060924588954   -2.12548725431718
H          -1.39932234021883    1.29420559811158   -2.89674519253685
O          -0.33564952096708    2.14497293504629    0.31208251293800
H          -0.59627848053234    1.94503237053262   -0.60500186033288
H          -0.73470997403829    1.42765286263328    0.84582982707864
O          -2.24410646093391   -0.87046342512236   -0.83432106855227
H          -2.12975015531950   -0.50694592062382    0.06402880212645
H          -1.48771934985818    0.29003036546822   -1.69884542138835
H          -1.59833572102738   -1.59183353916256   -0.84173928463237
O           1.41320167147968   -0.43107996738075   -1.71425947239386
H           0.99999899060342   -1.12008978054965   -1.15624171149280
H           0.66582285427730    0.08464007630123   -2.06625773812878
H           1.97312739878628    0.45593674567369   -0.51653740906358
N           2.00475825380140    0.97983554280426    0.41124204076289
H           1.79326624210564    0.26377846968273    1.16309407016077
H           1.17182759738760    1.64557907114192    0.40507091435031
H           2.88821167278549    1.45046632286028    0.56992275099799
