    23
        -45.38252902  Gyration_radius:  2.2756531651 Dipole_moment: 2.961
 S          -0.20866901281855   -1.89730051883966    0.00928016757258
O           0.00227517207804   -1.26997744412629    1.31065484148842
O          -1.15103667369278   -1.17405170880386   -0.81542633776327
O           1.05812733007983   -2.16331588784735   -0.65921487965923
O          -0.86551282062791   -3.30987748218135    0.29648096136190
H          -0.16644212374036   -3.79287725819749    0.72638228111968
O          -0.86299191975823    2.30313998659769    0.54157866683919
H          -1.29487232206425    3.10644842588536    0.83405219438914
O           1.43746979572112    0.99448663783522    1.32495547121458
H           0.99306074626356    0.14225359665775    1.51176788925158
H           0.71029074746438    1.62344488099818    1.16861261158085
O          -0.37083973583349    1.14374391750010   -1.91644618716298
H          -0.79146246593372    0.28824518180313   -1.69709945472498
H          -0.59511761784668    1.72921487243413   -1.17116362898896
H           1.12564620207474    0.68857371952779   -1.62121079353194
O          -2.21729145371312    0.16775698662992    1.24294448710232
H          -1.46597122023948   -0.35072726281835    1.58801321939406
H          -1.43951015535491    1.54756515997879    0.84589745334295
H          -2.36555213678754   -0.24504495345560    0.37972860908003
N           1.95618290231863    0.23983608380421   -1.12599401972062
H           1.95764420336998    0.63104890012969   -0.13416523589176
H           2.83337237263267    0.38617195285091   -1.61206098972989
H           1.72120020640273   -0.78875778635533   -1.02756732656143
