    23
        -45.37334890  Gyration_radius:  2.367623941 Dipole_moment: 2.527
 S          -1.23414734429114   -1.78165259844788    0.33647044722032
O          -1.56876956230804   -0.80658080112470   -0.72659897366566
O          -0.62236531968121   -2.97061484103870   -0.19031802585762
O          -0.51701095636517   -1.12860422802083    1.40599634608381
O          -2.64262980484433   -2.22572624781521    0.94296501600597
H          -2.85851547389435   -3.00775997248258    0.44298868958547
O           2.26729832295696    0.44446597005440    0.68843710502177
H           2.69713903912464   -0.12068308552367    1.33191419926950
O           1.33830249149271    1.69986504386162   -1.72216979735937
H           1.31928352606669    0.76723191769859   -1.98024197023107
H           1.97216548336658    1.73871958372602   -0.99591961976422
O           1.00432796010186   -1.03673075657651   -1.24227834169152
H           1.13163215395021   -1.98528765786085   -1.13621450584531
H           0.03387376923218   -0.94289468336184   -1.15205943903538
H           1.78881428887284   -0.16051711766236    0.08327847951943
O           0.04544797140007    1.36970696697274    1.99111475061524
H          -0.64232646712525    1.73418967130328    0.64854527549106
H          -0.27389538370467    0.44101484606170    2.01426539960247
H           0.97040125101193    1.26860238163056    1.69872229639737
N          -0.99034167428216    1.71752889763261   -0.36968944759450
H          -0.15726782629918    1.85639164610693   -0.99354684506817
H          -1.71657729822224    2.40128985992815   -0.54740450179795
H          -1.34483913652758    0.72804521495647   -0.52825656689890
