    23
        -45.36220133  Gyration_radius:  2.33790740718 Dipole_moment: 5.450
 S           1.61576649540669    0.47245915872905    0.72807196197997
O           2.27332338950995   -0.62975302393469    1.37440131527166
O           1.79592922749378    0.47416599619425   -0.72488717419941
O           0.21727130525238    0.65873469646551    1.08049362993406
O           2.34468198694076    1.79117216295138    1.24926667662255
H           3.23126265247916    1.47921402816377    1.39953966148487
O          -0.99896647628896   -1.72262711835092   -1.60895613091111
H          -0.79936670811675   -2.39416421384818   -2.26380737866345
O          -1.25727355310097   -1.26236880229310    2.25521245119424
H          -0.70651686851464   -0.50369882054846    1.98129392322676
H          -2.11594661414375   -1.13158069259548    1.84902109106226
O           0.45512076394161   -2.35588199723606    0.44397502280698
H          -0.16077946999457   -2.26098153940712    1.19543756474091
H          -0.43747036872041   -1.95499661605920   -0.80959715880324
H           1.23396161166175   -1.83331423881628    0.70760285659375
O          -0.19407205423300    0.61032857101202   -2.18860109955682
H           0.70178701131585    0.58343067314155   -1.64479914368624
H          -0.57871520583451   -0.33006401940943   -2.02614519820569
H          -0.78796174781780    1.28925660670591   -1.60964562152348
N          -1.39760330661425    2.13677429159724   -0.57449975343236
H          -0.86886409247735    1.72747630911630    0.20704127613607
H          -2.38705139317811    2.03384841507898   -0.39233167629370
H          -1.17851658496959    3.12257018334573   -0.62808709577657
