    23
        -45.37334878  Gyration_radius:  2.3671353178 Dipole_moment: 2.522
 S           0.99335219213305   -1.07092067236481   -1.63456500900462
O           1.45486308927969    0.26929172949039   -1.20615284409294
O           1.85050967835388   -2.11955158511193   -1.15403032295920
O          -0.41295300645663   -1.23014461192179   -1.34900904732021
O           1.13205557870943   -1.06295671042149   -3.22495874469851
H           1.99820025274739   -1.43264945471594   -3.37081684679057
O          -1.43907181776419   -0.85179404407150    1.73424597640625
H          -1.79618132184431   -1.73871145202149    1.67055626467298
O           0.14025733814340    1.46919530379533    2.33824308890147
H           0.83123484780811    0.80224613089185    2.21768826390556
H          -0.65087259223805    0.96350317197909    2.55970854915869
O          -2.32665899246400    0.37939944346878   -0.54402121442819
H          -1.22435290909109    1.46766547915826   -0.43410428729077
H          -1.77868761304021   -0.26108953550711   -1.04842283198489
H          -2.30627377899104    0.01064679851698    0.35854253115957
O           1.24716586517091   -0.82478605123998    1.18136410999668
H          -0.50184914204906   -0.92393333751249    1.45600356203275
H           1.60822653385744   -1.70222076281596    1.01722026862443
H           1.40703779364478   -0.36805151956847    0.33019839241557
N          -0.29024423967821    1.97600560558790   -0.27109145505427
H          -0.28413298465470    2.91600004984995   -0.64914997057029
H           0.44559169895837    1.36753771099267   -0.73850178514765
H          -0.09721649052839    1.96531829357268    0.76105334208651
