    23
        -45.37334896  Gyration_radius:  2.36756933486 Dipole_moment: 2.526
 S          -0.92342986892237   -0.19255429240566   -1.97994955620820
O          -0.76077402144010    1.13079065406464   -1.33563286530023
O           0.05113597521051   -0.41735027254671   -3.01196647771604
O          -1.02583556655273   -1.22713533201989   -0.97802014357719
O          -2.34467603272556   -0.12366584677730   -2.70381853027713
H          -2.12625086013946    0.15990729266734   -3.58702587135020
O           1.41015772708633   -1.55150464191084    1.18937557065341
H           1.49429771209393   -2.45736011671408    0.88849058210466
O           1.78630339316000    1.24912985086312    1.70177528292222
H           2.05671621760870    1.19329930061199    0.77414640251312
H           1.89911316311336    0.35367614792377    2.04260146637842
O           1.66817456383923    0.21114429451663   -0.89466059065941
H           0.80880691603667    0.64567879193186   -1.07168834186156
H           1.44465425578384   -0.99977503759552    0.37969041917775
H           1.85912195426666   -0.22026679469129   -1.73411175503817
O          -1.27236005985827   -1.24362752701064    1.63716966890601
H          -1.15094164189870    0.30171560972740    1.55702779607012
H          -1.40399075851052   -1.37988485955065    0.67328429957459
H          -0.33734720484169   -1.49198302017184    1.76058666292556
N          -0.87137389622114    1.30060110374384    1.27050344745293
H          -0.92224661349208    1.31216159094974    0.20879985154047
H           0.13440988479269    1.43926447018459    1.53828255923154
H          -1.47366522840331    2.00773862421131    1.67514012252178
