    23
        -45.37334880  Gyration_radius:  2.36713942003 Dipole_moment: 2.523
 S          -1.69441985258154    1.22480073368354   -0.65885720383622
O          -2.18678137811291    0.82156061439410   -1.94737290401848
O          -1.86667362644916    0.16629162230319    0.36220199001962
O          -0.34130977699881    1.72800214549414   -0.63387672407946
O          -2.62947232323358    2.42247777848801   -0.16889098199559
H          -3.44899258097889    2.26202801927012   -0.62805337927502
O           2.12245481399945   -0.37870365442706   -1.07541433954899
H           2.39355287156437    0.17136770702042   -1.81165903448260
O           1.08351266014322   -2.47439567610566    0.59129008637785
H           0.42674901334589   -2.46101849041584   -0.11953294128782
H           1.87480111689668   -2.08587785571024    0.19945257867832
O           1.71902445447222    1.40331407821824    0.96284378837018
H           0.83275358719520    0.38647958814619    1.73151855969043
H           2.16318730308445    0.81116934083441    0.32790238734874
H           0.98798380763581    1.78117583400691    0.42643255278329
O          -0.46667005009027   -1.23074698431303   -1.37808060310720
H          -1.03922286534771   -0.79840657692773   -0.71179186178607
H          -0.86350960479031   -0.94696656311565   -2.20824488543416
H           1.17502992097086   -0.57796034245011   -1.22941654982735
N           0.11596507594588   -0.37769743628611    1.97661477760860
H          -0.75720918385525   -0.13125902765199    1.42262807195154
H          -0.08034905659574   -0.42730686234503    2.96936498389447
H           0.47959567381272   -1.28832799209845    1.60094163198845
