    23
        -45.37334873  Gyration_radius:  2.36715518172 Dipole_moment: 2.521
 S          -2.18368483492755   -0.15760863828381   -0.11125257913715
O          -2.77610358754663   -0.40489113269347    1.17449712623739
O          -1.50768748739026    1.15848807753593   -0.17191100158139
O          -1.30801045481122   -1.19259189210057   -0.60785532712915
O          -3.38793461528817   -0.04811016155299   -1.15356974044046
H          -4.12084331241789    0.23198680942096   -0.61271206012103
O           1.60919400547487   -1.59576173756842    0.81738689041935
H           1.34670605743769   -2.50215025552158    0.98386455483544
O           2.26803095109568    1.18979026945877    1.04238528893286
H           2.61292299642814    0.29003152538399    0.99604014342280
H           1.51023821574566    1.13076872105388    1.64160074468363
O           1.01811082837652   -1.21417568328299   -1.82827192988924
H           1.01190072102332    0.32806013279138   -1.64605715137799
H           1.48214822566489   -1.48951521002005   -1.01595914619946
H           0.07422114572658   -1.34249877167789   -1.58846124032113
O          -0.19617546227793    0.16945942381098    1.88779477643170
H          -0.67846385855061    0.62869745069505    1.17004039125549
H          -0.90718203431861   -0.26364552659173    2.37159693611502
H           0.88089965253993   -1.04127631313579    1.16835170646829
N           0.86663825826360    1.31907315993978   -1.25327094472565
H           1.49598184817539    1.42715538892378   -0.41961989657585
H          -0.13568723607022    1.33656799358495   -0.89945111514200
H           1.02477998761781    2.04214635985003   -1.94516643617995
