    23
        -45.37334874  Gyration_radius:  2.36720834243 Dipole_moment: 2.522
 S          -0.35242424949042   -2.14889441255190    0.25356255495500
O          -1.47193227283731   -1.18030804083010    0.28915458362909
O          -0.28906516334632   -2.85994023701348   -0.99370295993414
O           0.87297351522511   -1.51229794700626    0.67542222482828
O          -0.70856075723805   -3.22796392587599    1.37501775185750
H          -1.16790602874744   -3.90615802150530    0.88789411440963
O           1.90184535336072    1.13703570303801   -0.94684010553560
H           2.71659448358773    0.65951809362770   -1.10922382111454
O          -0.65948647464615    2.41599702365684   -1.17207441781021
H           0.29683789759689    2.54258680942187   -1.16240242401672
H          -0.79669239072631    1.63032658538950   -1.72040830331894
O          -0.26727362070934   -0.26554299354242   -1.86778188130048
H          -0.02697878660596   -1.08635744107740   -2.31016444360375
H          -0.80403961184150   -0.58210780662442   -1.11257199949810
H           1.18240599045724    0.53931421105215   -1.24036762603212
O           1.47256954666654    0.81419622579088    1.73735110843869
H           1.82364191129698    1.15008550772513    0.89180762023517
H          -0.03310067193268    1.15907430301314    1.58011895328486
H           1.36994319054501   -0.14634035050437    1.55894262051638
N          -1.04235420404026    1.22683615091308    1.21332321752911
H          -1.30372853377557    0.23700655639638    0.92701237760147
H          -1.02613908334991    1.81202377450999    0.34156736084550
H          -1.68713002944610    1.59191024198470    1.90436351402848
