    23
        -45.36240971  Gyration_radius:  2.33182740187 Dipole_moment: 1.739
 S          -1.76813861160997    0.02268696634252    0.22442289542614
O          -0.89415713480357    0.58010981864613    1.25169875399426
O          -2.56104940292944    0.99005644058074   -0.47517025780616
O          -1.01454515454545   -0.87943472476486   -0.64826337285533
O          -2.79539927564886   -0.91543300333666    1.00208063065714
H          -3.61590653605682   -0.43854783271348    0.93173276284395
O           2.67236902210527   -0.51559083563859   -0.34984123163029
H           2.90562854961822   -0.55176045848013   -1.27872521250091
O           0.47278567606074   -1.08287913109840    2.68950515824373
H          -0.14487969627335   -0.42425618931806    2.28003735280629
H           1.21776969171032   -0.57784794057916    3.02438095566819
O           1.21543520298085    1.57873121871580   -0.09446537441838
H           0.76069410039807    1.69313963676880   -0.96461375267256
H           0.49061510195832    1.34698613945391    0.51318376031565
H           2.17304369666071    0.35784676569306   -0.21803920499359
O           0.86529711801446   -2.09697399855985    0.39368663880196
H           0.02331544269367   -1.65326139795412   -0.07799587338038
H           1.67447140344934   -1.52250305806947    0.05951006490586
H           0.75322161487154   -1.84520929617780    1.38296009689341
N          -0.37775642420453    1.53922077186918   -2.25853465958261
H          -0.51924456767700    2.25722236346145   -2.95917603142998
H          -1.22282313608411    1.48886010963829   -1.69135123936074
H          -0.31074667065232    0.64883760553036   -2.73702285007275
