    23
        -45.37334896  Gyration_radius:  2.36756975836 Dipole_moment: 2.525
 S          -1.28839438920736    1.02705757109845    1.44755706942540
O          -2.64926606382030    1.11494113854239    0.99401065105157
O          -0.85967037223351   -0.37398616217630    1.66214393547791
O          -0.31408715480320    1.73101558332686    0.64762482910467
O          -1.24817967845012    1.69409358810553    2.89737200780822
H          -2.14024929672603    1.58300499188303    3.21369852641743
O           0.44068505492735    0.53561584312194   -2.30857180637164
H           0.17709816716744    1.38394933293222   -2.66785913083627
O           0.58476150140354   -2.22564337161184   -1.53350207107216
H          -0.35589717539278   -2.04423705519482   -1.39558475836143
H           0.87028828176705   -1.56004292486405   -2.17082208864097
O          -1.59071399049479   -0.59940910615177   -0.85884625165860
H          -0.31115390286517    0.23821684099334   -1.75402412227872
H          -1.35545097426733   -0.61118970296053    0.09150029128534
H          -2.39922800729516   -0.07641482264362   -0.86580181542980
O           2.09971423123611    1.17685805011130   -0.22814205796502
H           1.90225566136463   -0.22209746894601    0.41487879677449
H           1.77305047331619    1.00791717923432   -1.13141968677929
H           1.32262100873489    1.59277240606405    0.20554789157129
N           1.47257679082824   -1.14364055166439    0.76713986574871
H           1.22116245174625   -1.72011697622593   -0.07369566631139
H           0.56462102908288   -0.86497822509611    1.24457915708443
H           2.08345636388733   -1.64368617790169    1.40221643392895
