    23
        -45.36241104  Gyration_radius:  2.33158484661 Dipole_moment: 1.704
 S          -0.19991537115069   -1.39390148715175    1.09133239438377
O           0.36689975680950   -1.35314647386172    2.40701159945595
O          -1.30903792285183   -0.46893495047876    0.87907597756886
O           0.77927410612671   -1.26884343031376    0.01058807837071
O          -0.82105985437277   -2.85125357793195    0.91879990593928
H          -0.83720168318180   -3.18477522115925    1.80993794817847
O           0.38159825039212    1.81337219182396   -2.02269685231276
H           1.30265979456823    2.06617629138423   -2.10187145703812
O          -2.51665248668890   -0.55597677367502   -1.40855075011050
H          -2.93002637670842    0.30455222353043   -1.51220375276833
H          -2.19438928171851   -0.59578352874174   -0.47164321169222
O          -0.10749737789863   -0.64548413434561   -2.20904374572404
H          -1.12059826135179   -0.67567221268851   -2.04390281413926
H           0.13165720439955    0.37353970821823   -2.22987066431628
H           0.30888802412954   -0.98728749382241   -1.29348408797041
O          -0.14257533342551    1.92770949688632    0.48477977702067
H          -0.70193722000140    1.15819160112765    0.69266272115156
H           0.70932666747512    1.72624905722582    0.94373240863014
H           0.13630346011514    1.94317945354059   -1.04684149792729
N           2.02869116968227    0.86675878216085    1.66111975417050
H           1.48567627594789    0.11867978246744    2.08985594239739
H           2.62598751642244    1.26338260435874    2.37690554412544
H           2.62392895328192    0.41926810146314    0.97430682259368
