    23
        -45.36241103  Gyration_radius:  2.3317265892 Dipole_moment: 1.709
 S          -0.88838178809665    0.74340973479301   -1.35413846037323
O           0.09850912494681    1.52351858922699   -0.61380104690961
O          -0.51482358214105    0.43519796155098   -2.70296083620125
O          -1.31253260736781   -0.41598590660173   -0.56771767088345
O          -2.18010263738179    1.67146397056983   -1.45105516152809
H          -2.18872277750143    1.93198343828785   -2.36629340011605
O           0.93119124267827   -1.19269659805057    2.28873761938267
H           0.97046135808401   -2.14616290275891    2.20004417180873
O          -0.52379143276241    2.27329056784443    1.78413990278287
H          -0.30725537382196    2.14930463423052    0.82449665061430
H           0.31321644109315    2.42731512419080    2.22892153104611
O           1.96955930183366   -0.26465715479888    0.13569860159743
H           1.78117843466985   -0.93860647892440   -0.56239076615367
H           1.42961150666441    0.49986611900805   -0.13303562156938
H           1.42179842014098   -0.81407576713515    1.48541444592808
O          -1.31526477675492   -0.13824360564296    1.88683854514370
H          -0.42383239706373   -0.62797246659896    2.13476379827759
H          -1.10239826959262    0.86185411478753    1.98273586176751
H          -1.40169757487935   -0.27943283306955    0.83761493015046
N           0.98647812651083   -1.84214681839129   -1.80551153547739
H           0.23577175976897   -2.42212811558322   -1.45016853321197
H           1.48527261748003   -2.37668629899507   -2.50683540760560
H           0.53575489351696   -1.05840930792518   -2.27549762848155
