    23
        -45.36220121  Gyration_radius:  2.33770236782 Dipole_moment: 5.455
 S           1.26583610623194   -0.75996447103788   -1.08892532470950
O           0.27896579089345   -1.80281694944776   -0.80267181222854
O           1.19599603728308   -0.27580779795161   -2.44005146753195
O           1.25601942161366    0.26490763200874   -0.05727268981556
O           2.68731373830099   -1.46749268866184   -0.94410946044798
H           2.83538204430445   -1.79383032820080   -1.82587718374440
O          -2.53238874412481    0.35820788343241    0.11345216486419
H          -3.37921436474296    0.10893103970492   -0.26109937483800
O           0.44512248045819    2.78938357827809   -0.52105521386523
H           0.89228738007792    1.93435445063154   -0.36979470057921
H           0.00232735581985    3.00995934960427    0.30036604577460
O          -1.21714497401486   -1.54498074815874    1.15072586572305
H          -0.52762896235405   -1.09830569500904    1.83950845455633
H          -1.81450143480893   -0.78573020886222    0.79717536194084
H          -0.60291421561327   -1.74955881573248    0.32596404020157
O          -1.08126266430962    1.03066514050495   -1.92952948655843
H          -0.34272132685614    0.47928677726819   -2.24507587151876
H          -1.95999070338475    0.61609456216921   -0.66996982219053
H          -0.65321141266965    1.85840753088392   -1.63852394615153
N           0.59082225848457   -0.42447260885588    2.51419414260596
H           1.02824283065830   -0.07800831416157    1.65017216414486
H           1.24893927964394   -1.03032519318820    2.98590352134932
H           0.38372408910702    0.36109590478143    3.11649458301801
