    23
        -45.37334913  Gyration_radius:  2.36755184706 Dipole_moment: 2.531
 S           1.95194356785215   -0.99190775576060   -0.12702357923566
O           2.66989182060211   -0.62311068369495   -1.31610505649384
O           1.73555799740696    0.16152714949173    0.77613748931786
O           0.71219936853877   -1.70143799887052   -0.33757022417273
O           2.90320846605267   -1.97940476873393    0.69075493913475
H           3.77681995855285   -1.72615589602321    0.40648461597210
O          -1.84709121467336   -0.05083246682737   -1.54798595367749
H          -1.86500484006410   -0.69245666654954   -2.25942984434981
O          -1.51623863081502    2.31175921761691    0.05029181840971
H          -0.71665060089955    2.34436285142293   -0.49408673442947
H          -2.13407088968620    1.77121464086621   -0.45651795860138
O          -1.68848904668681   -1.57320578069989    0.72102833794940
H          -1.15228944914363   -0.36956959034842    1.54121977798568
H          -2.04863766406715   -1.11327309739554   -0.05995143394692
H          -0.80843945575344   -1.87396456430081    0.40479898739912
O           0.60206794549387    1.16910835814852   -1.37789491048690
H           1.21610954246302    0.88305507337062   -2.06229744619128
H          -0.92541300690465    0.28184320384605   -1.51524303401606
H           1.05673868055269    0.89002024951226   -0.55687419055232
N          -0.62260844103478    0.51589073776512    1.84696908840880
H           0.38053334771676    0.36619453318003    1.52882061633541
H          -0.67132997656662    0.67672811379137    2.84611029721692
H          -1.00880747894618    1.32361513019141    1.29836439802109
