    23
        -45.37334899  Gyration_radius:  2.36746276545 Dipole_moment: 2.524
 S           0.22701163106180   -2.18094696503927   -0.03143339480851
O           1.31415853574223   -1.30509753056366    0.46231305670413
O          -0.48821121533476   -2.81574318588004    1.04132732002171
O          -0.58446002284339   -1.47557801632563   -0.99509452701833
O           0.97034499306475   -3.34400137367516   -0.83346752587721
H           1.07817452229574   -4.02735054881043   -0.17800692757020
O          -2.00610878813185    1.33318478252113   -0.08908968190746
H          -2.84323950672556    0.93318163793260   -0.32865489156566
O           0.24830371639404    2.41737202441845    1.31912049449898
H           0.03401883649507    1.65454822382714    1.87494889289341
H          -0.57192245564375    2.61674297149600    0.85201469210260
O          -0.67939286378444   -0.18407917354989    1.77007483675512
H          -1.57316493646729    0.69685737045028    0.51820977575163
H          -1.17693008027349   -0.95908299685692    2.05127269285262
H           0.11974640365852   -0.58126538572644    1.36728532920586
O          -0.38723421144666    0.83005466543841   -2.23850351727063
H          -1.06422466246142    1.23767244767201   -1.66702781215336
H           0.88807573027262    1.06500640602328   -1.38451251003451
H          -0.47254358203307   -0.12446383459217   -2.02281209783789
N           1.60351625684017    1.07402393280254   -0.58093734500490
H           1.60305281543083    0.08392426994147   -0.19382798876844
H           1.23087244551000    1.70530768072314    0.17087409250474
H           2.53015643834544    1.34973259780978   -0.88407294348146
