    23
        -45.36241027  Gyration_radius:  2.33163959029 Dipole_moment: 1.722
 S          -0.95383866387911   -0.39898876977797    1.45201091985006
O          -0.70152388556191   -1.62328395882026    2.15279113559607
O           0.12439940791303    0.58125791159302    1.53319278645715
O          -1.37288766388888   -0.57848866555449    0.06090310681100
O          -2.20156315367974    0.27877305309421    2.17553303526910
H          -2.27748513780657   -0.21942331434252    2.98276030910287
O           1.04848925233573    0.76718800351422   -2.41619618235441
H           1.03372152382498    0.04877658219944   -3.05038363234628
O          -0.27402679943893    2.89181627936826    0.43660485007213
H          -0.13887943126089    2.09030009966161    1.00430642342286
H           0.60135991752530    3.24573190028514    0.26186342432096
O          -1.16841999198650    1.39500276221452   -1.41065031406198
H          -0.28490676052662    1.16189392733836   -1.92167444301347
H          -1.34350154166400    0.54384922442845   -0.79961011596552
H          -0.90141601046575    2.12660651114930   -0.74118972349275
O           1.96207148548432   -0.25698832777939   -0.25020182951499
H           1.43967244499004    0.11624745988877    0.48198698550449
H           1.68750931413744   -1.20627372063890   -0.27061957705907
H           1.49402327566253    0.39831237959403   -1.58268636122269
N           0.75214853264101   -2.65213004813349   -0.09989053560199
H           0.30722722785914   -2.42211129028182    0.78744476297958
H           1.16543697321470   -3.57251067750550   -0.00811120604501
H           0.00238968457404   -2.71555732148596   -0.77818381867329
