    23
        -45.36842730  Gyration_radius:  2.29782672312 Dipole_moment: 5.034
 S          -0.26354027980825   -0.59059737172166   -0.44962063215465
O           0.87808292853366    0.04435984197164    0.24671041854824
O          -0.54735030549058   -1.88895681337546    0.11259083409658
O          -1.40320686901727    0.31271947380928   -0.48520638395706
O           0.18784171463300   -0.74623853092477   -1.93702378790928
H           0.84398823247264   -1.50397472709172   -1.91438951469103
O          -1.71831740535378    1.62866221146519    1.82357555913486
H          -2.01995625883707    1.23405074600154    0.98486330078587
O          -0.49009174546056    2.46228833414809   -1.65878508804459
H          -0.98950931235114    1.65919097125330   -1.38190972073301
H           0.09306545000161    2.17640334527318   -2.36465013504344
O          -0.61270927359164   -0.70037161491802    2.54381891688144
H          -0.73597696761430   -1.25695807298444    1.75379071315225
H           0.33540197128944   -0.55579403819424    2.59994874987254
H          -1.42045363881971    0.84777896428098    2.34228384581415
O           0.40348083574929    2.40756356431001    0.74901878808051
H           0.72568785399639    1.39918599450604    0.57279562560769
H           0.10204312473347    2.68155680884871   -0.17832468663572
H          -0.49108181491973    2.23221819699844    1.29819261483604
N           1.70750446571862   -2.77148623229361   -1.33323216437624
H           1.00668659976135   -2.89242733927816   -0.60530489601350
H           2.58589024160839   -2.53189639262158   -0.89258882564198
H           1.82252046275358   -3.64727732945348   -1.82655351156301
