    23
        -45.37334904  Gyration_radius:  2.36763907331 Dipole_moment: 2.526
 S           1.85852489877343    0.81267557438738    0.83417916313803
O           1.86839857918165   -0.02521565180606   -0.38678903973661
O           2.01931598691407    2.20925876468225    0.53555538967679
O           0.72532124522206    0.47499346841419    1.66271799833645
O           3.15939298748103    0.36855547596670    1.64601525696236
H           3.82122057804355    0.98859796284572    1.35330938818729
O          -2.27760949219001    0.69818765193142    0.36806349067290
H          -2.48865205180846    1.30235320772269    1.08129363420016
O          -1.64367240345805   -0.48620306083071   -2.16983702289030
H          -2.33938094645585   -0.29689629797744   -1.52876269661023
H          -1.12177224909098    0.32784394320370   -2.21137559174711
O          -0.11060280255438    1.57697059061572   -1.06272341270577
H          -1.45922699286429    1.04937531721929   -0.04200308511059
H           0.22529660082527    2.42622477511172   -0.75740190877241
H           0.65209138042578    0.98196039219319   -0.91119058888504
O          -1.08902022877103   -1.42444311239599    1.62281863964493
H          -0.36696717013917   -0.81081890513890    1.88154175775900
H          -1.77071099177491   -0.81719487455459    1.27979934058262
H          -0.42584480524447   -1.88936802543743    0.29846348433814
N           0.07221500463409   -1.90519519192743   -0.65525557892644
H           0.88842676277877   -1.23135080604041   -0.55644601979423
H          -0.58613697702225   -1.49905649698053   -1.36530734413103
H           0.38939310711129   -2.83125468121324   -0.91666524420885
