    23
        -45.37334899  Gyration_radius:  2.36761385525 Dipole_moment: 2.526
 S          -0.07846588776825   -2.11455242246069   -0.57728886321672
O          -0.78947826321741   -1.07896492148898   -1.36143870348361
O           1.13278237877432   -2.54564626542703   -1.21948165130952
O           0.05578009612204   -1.69572049720671    0.79795937744272
O          -1.06253380370422   -3.37165181061539   -0.57185899993771
H          -0.76504077881964   -3.88491698074047   -1.31764425678184
O           1.57143978416703    1.14057606456425    1.42863641848178
H           2.17801184910258    0.64194395381255    1.97783482986745
O           0.34315140533946    2.65928299055562   -0.67629311679548
H           0.77814573467275    2.69456727587703    0.18413290306265
H           0.86441091137555    2.02402900077141   -1.18761956476086
O          -0.90619364488588    0.29069629911707    2.22220170811685
H          -0.66308992064281   -0.59705800685099    1.87900089078586
H          -0.05485741589338    0.76613547589814    2.20200835257978
H          -1.54793339459309    0.79408588298438    0.90177466457049
O           1.52289495308478    0.16245339761276   -1.13216131352135
H           0.65702922553376   -0.25789226459804   -1.31161772194223
H           1.56462853946511    0.68442296526544    0.56085194123363
H           2.13910711729490   -0.56411013333483   -1.27221986634849
N          -1.72955907053335    1.02806000398274   -0.13280981386269
H          -1.05427978976767    1.78191258718934   -0.41242660687881
H          -2.69087980046520    1.29301746874331   -0.31223371808458
H          -1.46507022465923    0.14932993633799   -0.66930686923155
