    23
        -45.37334890  Gyration_radius:  2.36755699013 Dipole_moment: 2.526
 S           1.35611210192208    0.95081161838944   -1.43750661234482
O           2.73618940584238    0.77415813278206   -1.07752459030817
O           0.68978945282658   -0.33489330614360   -1.74720148535065
O           0.55866228338486    1.71596310056918   -0.50834381351106
O           1.34511718500527    1.75970484564040   -2.81381839531920
H           2.18688405105213    1.53991444496689   -3.20279939893187
O          -0.21269058180859    0.36185882402673    2.37336848635450
H           0.20787815911574    1.11774811071653    2.78559151169946
O          -0.85768225604877   -2.24841756314481    1.36287887280176
H          -0.99186235428624   -1.61424442533894    2.07741710288431
H           0.09064415079099   -2.20644668642238    1.17399353849763
O          -1.85951342871740    1.46679275765064    0.48704411561329
H          -1.51419177549639    1.15677873062196    1.34483186673219
H          -1.05043816969859    1.79579149763004    0.03748545959280
H          -1.93331059679771    0.12741155977071   -0.29377442798804
O           1.51569433226513   -0.93039599479006    0.68246406047373
H           0.44632975845042    0.00514550624214    1.74120656852748
H           1.22799696285568   -0.80741603186794   -0.24530412141911
H           2.39879840839972   -0.54651621655321    0.67831560595813
N          -1.68310553070278   -0.81015804844315   -0.75899464690646
H          -0.77020908863517   -0.63268921043899   -1.27377706616668
H          -2.40361656868671   -1.13901705474357   -1.39086402559596
H          -1.48347590102313   -1.50188460114409    0.00531138470721
