    23
        -45.36241022  Gyration_radius:  2.33179739525 Dipole_moment: 1.727
 S          -0.07300884961880   -1.29017892186803   -1.22733996923126
O          -1.33306758476451   -1.88965074043180   -1.55389382065192
O           0.06302188590705    0.10287531936881   -1.64071116554263
O           0.31999967557340   -1.44434984100996    0.17440456592160
O           1.02819269255881   -2.09040727256703   -2.05601978725691
H           0.50781476136962   -2.58897227106564   -2.67748736385643
O           0.51547247242328    1.76342514088284    2.03853932926489
H           0.09143293269519    1.49250775241929    2.85420530027907
O           2.34885855589524    1.25101838122578   -1.24393659387296
H           1.51818520888600    0.81198256196243   -1.56051803531635
H           2.16056488522520    2.19231821779545   -1.21949607810493
O           2.07397484377728    0.08773889011953    0.99756803757898
H           1.49004310014481    0.78712931387340    1.51304368704205
H           1.37253746537400   -0.63941097601940    0.66900850304530
H           2.35590487912485    0.56482017850365    0.13293467782727
O          -1.27809288709970    1.51272951090696    0.22314583496618
H          -1.86610863786926    0.77999100330833    0.53020384038064
H          -0.20905189598084    1.75715459627074    1.32837231407546
H          -0.83793287177695    1.13904766233185   -0.56098761468086
N          -2.50934714861692   -0.79843085114740    0.82788200420860
H          -1.98842662416435   -1.30694232317036    1.53229300329900
H          -2.25632138365429   -1.21913890159032   -0.06494058708602
H          -3.49464546547186   -0.97525642003769    0.98372990773449
