    23
        -45.36241057  Gyration_radius:  2.33178901203 Dipole_moment: 1.714
 S          -1.30859445289311    1.07756980923409   -0.55059974720037
O          -0.60073614627986    1.36571608338711    0.69281879565622
O          -1.06109280217278    2.01203858966328   -1.60863557394667
O          -1.11863340569404   -0.32349272871179   -0.92978289204711
O          -2.85759221229358    1.20429301480803   -0.19871939391382
H          -3.11250788796529    2.00851290798033   -0.63901493135914
O           1.67033134301731   -1.99750609418407    0.86681597373151
H           2.06254999406004   -2.47231956183124    0.13247967632193
O          -1.08256113200996   -0.16211768532313    2.72591183261211
H          -0.31428391504254   -0.07915631939683    3.29599400307821
H          -0.98824262716058    0.53980726480614    2.03203053776412
O          -0.84239234235508   -1.93458414020182    0.92208123151316
H           0.19621470270325   -2.06463077729368    0.90903902363503
H          -1.02446703432639   -1.34287005830517    1.74140763048574
H          -1.03078170994137   -1.29139991129798    0.09776573583046
O           1.91253329485496    0.48663557215896    0.27857420927568
H           1.84207606205601   -1.01332203201782    0.69047970950622
H           1.89489359496526    0.52810174387787   -0.70881014134698
H           1.08210928714659    0.92262120551692    0.54042292911792
N           1.32977472710791    0.60092833815809   -2.34270434169327
H           0.54189272662509    1.22774132608779   -2.18575436265277
H           0.92958062303821   -0.27451699222049   -2.65846937922910
H           1.87992932256409    0.98195044512352   -3.10333051514651
