    23
        -45.36842697  Gyration_radius:  2.29680627335 Dipole_moment: 5.027
 S          -0.71829675796069   -0.11385816773965   -0.31060096095026
O          -1.82086205974910    0.75690190720872    0.01867428472433
O           0.55598431300567    0.63888343383343   -0.33274855364452
O          -0.60155277636808   -1.28642105397656    0.54239624808874
O          -0.89929284872551   -0.67163568732137   -1.75851206678273
H          -1.15560133424096    0.13317600873108   -2.29828730916834
O           0.76699669146093   -0.76800157437117    2.78208922714418
H           0.11354984302559   -1.24386917819620    2.23717089409085
O           1.41433212186685   -2.61496393639744   -0.45860142548962
H           1.35314987447464   -2.54734073103756   -1.41344931729207
H           0.54345544090664   -2.30994310533171   -0.11269097980105
O          -0.39714412947558    1.56464139736886    2.17491510248700
H           0.24369599185799    2.07577525535402    1.67377707475968
H          -1.07722295304877    1.30881327237015    1.52588551492165
H           0.39307563447378    0.14028651515257    2.83529629498564
O           2.33409778127603   -0.59791455051126    0.83900804299010
H           1.64886027063223    0.02307804983903    0.29613307617353
H           1.81717029859211   -0.69322872092713    1.76508533037397
H           2.20955540057411   -1.48555081612920    0.36707196373264
N          -1.60096285959167    1.67546782588610   -2.63925588413180
H          -2.34908241948314    1.91938315747090   -3.27521794380918
H          -0.83766598981210    2.32520085069129   -2.77493889799148
H          -1.93623952371460    1.77111983814681   -1.68319968540822
