    23
        -45.36241031  Gyration_radius:  2.33148137964 Dipole_moment: 1.723
 S           1.64453673530818   -0.56638205130145    0.39110542544652
O           1.45897784605064    0.59579381982944   -0.47217348400887
O           2.21057505695049   -0.27231060089384    1.67439251025922
O           0.41593283269438   -1.36054762590777    0.44408851981606
O           2.70249305186534   -1.49132487808695   -0.36043543520479
H           3.48417898986883   -1.40082945661839    0.17471716570005
O          -2.58545720290864    0.43807104277488   -0.80536565992565
H          -3.21339399882381    0.17355153963687   -0.13135952634892
O           0.58519750525188    0.17775370489145   -2.87260577671737
H           1.06920671457863    0.37022284896578   -2.02896760100043
H           0.18748837545918    1.00745903718427   -3.14749169227373
O          -0.78532003498463    1.78092302819298    0.43194896352140
H           0.07342697274063    1.51949344877841    0.05445410574186
H          -1.91769952697946    1.04759816071117   -0.34495463997097
H          -0.75992923603389    1.40743606462878    1.34670630755594
O          -0.99152019958994   -1.34240708447910   -1.58585129634025
H          -0.38327878767155   -1.43990491325505   -0.72047301617401
H          -1.73240947871169   -0.66078920558843   -1.29843792527201
H          -0.39835259259133   -0.82526493911157   -2.24569760519845
N          -0.38600857392016    0.39797063078631    2.70152334658793
H           0.59650681779081    0.23739092512335    2.48434328023634
H          -0.83381743759905   -0.50912090008707    2.64849837498075
H          -0.44133383872559    0.71521739387118    3.66203564860054
