    23
        -45.36842704  Gyration_radius:  2.29692341033 Dipole_moment: 5.028
 S           0.60202546944452    0.07691403046129    0.50563456936251
O           0.12801899951824   -0.35824001628555   -0.82745772161465
O           1.54728401435875    1.16035983850575    0.38337195019227
O          -0.52618300181130    0.35778795938252    1.37990227958816
O           1.30621075969896   -1.17151364286627    1.12684586113846
H           2.17081419171399   -1.23801180298682    0.62402106328523
O          -2.49763347904354    1.63559444761415    0.09954840423856
H          -1.97130805825066    1.38177207228348    0.87989751465003
O          -1.89505562060813   -1.86845245067618    1.40082021807737
H          -1.37949053873453   -1.05725514512983    1.61831843108656
H          -1.26337861424748   -2.59010248263157    1.41687124730977
O          -0.27565211614920    2.43026285811397   -1.16388173027042
H           0.43311569268062    2.17143077930560   -0.54760052200921
H          -0.16492021683603    1.85417303221545   -1.92474179976705
H          -1.85439756719474    2.13944653163971   -0.44816223556253
O          -2.31364572923368   -0.67762204753216   -0.83641720984837
H          -2.55983007713043    0.30428475671313   -0.50648758439257
H          -1.25105257467830   -0.58508400255509   -0.94903513336002
H          -2.37263643250935   -1.26289744384529   -0.01181108352522
N           3.39188292745194   -0.82750541162681   -0.39254977874269
H           3.27512399137079   -1.12811927385945   -1.35129513365652
H           4.37241963710666   -0.89169264936809   -0.15157883510601
H           3.09828835303694    0.14447005309086   -0.32421274108552
