    23
        -45.36241128  Gyration_radius:  2.33151274659 Dipole_moment: 1.702
 S           0.09199457919863   -1.65095809027690   -0.66626901992678
O          -0.11850797347607   -0.51537740003440   -1.55897810528580
O           1.36693813843343   -2.29043887253666   -0.80578943999113
O          -0.25018433954891   -1.28579706427107    0.70924301718900
O          -0.99801874084958   -2.73371921059257   -1.08914753165355
H          -0.47913766129825   -3.40014307838735   -1.52763386810430
O          -0.52815891667890    2.37499567642582    1.26794913632566
H          -0.06662074066674    2.43633855814384    2.10566074623676
O          -2.43727871873473    0.63326435987245   -1.50929959184027
H          -1.59849277174710    0.13226841783794   -1.67873653832193
H          -2.28900995457075    1.52202507345598   -1.84137929574330
O           1.21515216074297    1.52371374652780   -0.40871378086803
H           0.76802887072568    0.87308109466168   -0.97882196778960
H           0.17263743737495    2.12786776687437    0.57716550379198
H           1.84462856269010    0.97485908226274    0.12006476001463
O          -2.04420182359451    0.38931945870811    0.98836642361286
H          -1.47530993335030    1.24634691247072    1.18358436028303
H          -2.37267808652695    0.50477330936142    0.02218248156529
H          -1.32239514895011   -0.38678391481251    0.91959647826653
N           2.56555326308910   -0.36064335452587    0.95063701367323
H           2.08798980194229   -0.58796020389269    1.81464752201434
H           3.56178248741304   -0.43769836805551    1.11803449720662
H           2.30528949841667   -1.08933388923354    0.28763719937888
