    23
        -45.36842705  Gyration_radius:  2.29698393689 Dipole_moment: 5.026
 S           0.36420217678642    0.50615326410075    0.48441327779529
O          -0.88233445195277    0.10049934058613   -0.20306845720106
O           0.21192461390933    0.41247132251339    1.91633191855158
O           1.50128155768709   -0.22724071680052   -0.04966534511226
O           0.60224430432123    1.99466631317870    0.07437287951143
H          -0.08415258446479    2.50371072974071    0.59831308642005
O           0.91716748257159   -2.79797106797873   -0.50615500509860
H           1.50900238119776   -2.04980169005947   -0.30535316217758
O           1.46497890877104    0.30287780646864   -2.60863441095445
H           1.69088386858000    0.18306531114513   -1.65698296342034
H           1.22262797708843    1.22600080210940   -2.70422326184400
O          -0.39916008145697   -1.39055423291235   -2.10228012807708
H           0.31165430495525   -0.81794853988087   -2.54137441357900
H           0.13226638223372   -2.12332410273205   -1.54168086797182
H          -0.72901687658216   -0.74273266139288   -1.31376794653872
O          -0.66343732582298   -2.12266726854307    1.54613333054257
H          -1.51287347451328   -1.87136378691071    1.17413586984488
H           0.32924384931563   -2.83421911385200    0.28161602507916
H          -0.27098694918809   -1.28881956602321    1.86206217417795
N          -1.26584784544828    2.80493088863852    1.69630451473057
H          -1.26175118926325    3.59639502121600    2.32657135870741
H          -0.97722528810411    1.97408677250949    2.20825185816174
H          -2.21069173063661    2.66178519490356    1.36467967842376
