    23
        -45.36842703  Gyration_radius:  2.2969599303 Dipole_moment: 5.027
 S           0.24435807959301   -0.23930279303014   -0.71299032543755
O           1.44070667218904   -1.03211941434509   -0.86368570883236
O          -0.44579141734729   -0.56767161881033    0.55463270555395
O           0.45584567054185    1.19593116943120   -0.82004804722246
O          -0.77098094847952   -0.59409435755177   -1.84595701851626
H          -0.76456919613063   -1.59615544882332   -1.87235372063084
O           1.20193795843430    2.27861178434346    1.51031276538003
H           1.14966684137289    2.22569942464321    0.53829130484006
O          -1.93858370496888    2.22080719340633   -0.60286046135915
H          -1.03183159273690    1.95149774241619   -0.87930826976587
H          -2.53841988278620    1.64665863217815   -1.08306216269055
O           2.16380281053649   -0.21704613103704    1.61412162539815
H           1.72228716463344    1.47869287812298    1.74907708445010
H           1.51298534802245   -0.74957247188947    2.07871396503806
H           2.11324079033178   -0.51090297313126    0.68658968439029
O          -1.15809851946640    1.47660044941154    1.72849463437703
H          -0.19317058663249    1.92408075641265    1.77720706354891
H          -1.62365999117485    1.92176884468702    0.94673130410113
H          -0.90992181252410    0.52270412940902    1.30598948140088
N          -0.30620139801509   -3.13811725137619   -1.54840950414083
H          -0.17425815620226   -3.84858895628837   -2.25657991972518
H          -0.75362505408436   -3.56170676608443   -0.74614093556919
H           0.60428092490049   -2.78777482216172   -1.25876553458479
