    23
        -45.36842730  Gyration_radius:  2.29738231199 Dipole_moment: 5.031
 S          -0.76873590347391   -0.09712190089922   -0.14980783794574
O           0.39359660363056   -0.41378319242402    0.71018899882943
O          -1.76948648256687    0.63217220609458    0.59126031013572
O          -0.33238344966620    0.55547534829493   -1.37453101310156
O          -1.34503326110971   -1.47770834890302   -0.59891901840966
H          -1.80130379593319   -1.82904107026291    0.22169625945801
O           1.61238814201892    2.33669286639907   -0.92366543242659
H           0.85444005391254    1.96045426396778   -1.40782154384699
O           1.36566206327842   -1.12418292145565   -2.43561571639576
H           0.62204312547029   -0.50884826481786   -2.23660207635796
H           1.01730034011612   -2.00707040065490   -2.29703680090151
O           2.51145437582434    0.04874755272515   -0.45836129844437
H           1.65935514643746   -0.20135151769916    0.14267589299790
H           2.30385941155052   -0.45571410476218   -1.31184642670569
H           2.30289412933448    1.07050881806268   -0.67422141049214
O           0.18668285988525    2.34551766359127    1.34121335980884
H           1.21935599404870    2.59183302040410   -0.05867343180470
H          -0.64097934230734    1.90213461708391    1.08109087592698
H           0.61618230362138    1.73390996590422    1.94496210416335
N          -2.42392783185373   -1.85902982603120    1.73920159452756
H          -2.45757340350946   -0.84197669597396    1.72623744671559
H          -1.78159700317661   -2.14668692961165    2.46571642093687
H          -3.34419408549098   -2.21493114905489    1.96285872328253
