    23
        -45.36842698  Gyration_radius:  2.29691285165 Dipole_moment: 5.028
 S          -0.43592054064481    0.45010549266613    0.48136135939016
O           0.21859458871218    0.28667134951427   -0.83622546601142
O          -1.86890248963427    0.53366119332327    0.33324053270747
O           0.01511380594997   -0.57956827624103    1.40452850981518
O           0.11513175616488    1.79344326848476    1.05802045662624
H          -0.35107760814768    2.49829372089172    0.51880698177024
O           0.22354193044733   -2.97093400953634    0.22250696465997
H           0.09196432636539   -2.36834150136257    0.97739921435095
O           2.61393353627138   -0.30551703201213    1.45516497274279
H           2.80132279199487    0.63499557988963    1.43665793736056
H           1.65341699478074   -0.38287505752544    1.66116031620986
O          -1.74051352242474   -1.74581265017518   -1.12199997044353
H          -0.55926928394290   -2.79081417438062   -0.34519639063212
H          -1.97630792729630   -1.00186275378409   -0.53890932892578
H          -1.33943489321269   -1.33812980527442   -1.89398517267356
O           1.95958921218448   -1.45248402649395   -0.74825425849677
H           1.32634686414402   -2.23259860817401   -0.39666238185894
H           1.24045242147451   -0.67195917318441   -0.90355456618880
H           2.44675511677338   -1.10939358377799    0.07084017882851
N          -1.40412936485399    3.17440710806418   -0.54235463050588
H          -1.99733022966280    2.35269117744099   -0.45002611875918
H          -1.07912615809327    3.22600813659444   -1.49884835294855
H          -1.95415130741506    4.00001360507047   -0.34367077696654
