    23
        -45.36320092  Gyration_radius:  2.36877368449 Dipole_moment: 3.232
 S          -1.34827006508574   -1.61101282815996   -0.94621425710164
O           0.01885534056182   -2.11577195615058   -0.80966111009736
O          -2.20956204721378   -2.03594406220966    0.12472956144139
O          -1.33329372467424   -0.16712133452258   -1.17068435578294
O          -1.93525137300016   -2.25076851590070   -2.27655499725797
H          -2.46984145546546   -2.96784051798407   -1.94948160071780
O           1.47442768516830   -0.27641428692327    1.78822795679309
H           1.57330808071629   -1.13322026553087    2.20752577396557
O           0.71702339929773    1.42946732200919   -1.58002017161000
H          -0.14040931777657    0.95193575737913   -1.63666598068392
H           0.65164696111799    1.98554295664852   -0.74906840521436
O           1.94018971052240   -0.53850458644028   -0.74043395094300
H           1.19443597507041   -1.25584391265818   -0.87039398996129
H           1.49649866685849    0.37663169277301   -1.18747551075651
H           1.91978159903471   -0.38484707853051    0.25896761320858
O          -1.13032129444042    0.08029743341597    1.42890004661529
H          -1.24849709193340    0.16762045048155    0.45943315100659
H          -1.64761818943261   -0.71314756522482    1.61729933718972
H           0.49858695009206   -0.11396848842478    1.72141676601942
N           0.52721146278443    2.57847313169715    0.81477213898109
H           1.32462223351940    2.28769869717028    1.36787009046705
H          -0.29145591489881    2.12779250147995    1.20910270773470
H           0.41793238917477    3.57894548560572    0.91840919670772
