    23
        -45.36316472  Gyration_radius:  2.36626713256 Dipole_moment: 3.108
 S          -0.01183160108116   -2.21066169612540   -0.60513770316098
O          -0.41220235279734   -2.78120062982254    0.65481311016331
O          -1.13692147769384   -1.62430721217343   -1.33755791862460
O           1.08890014275070   -1.25695626576279   -0.50648932622375
O           0.53148934151960   -3.40245907959982   -1.49841560458205
H          -0.03884946243748   -4.12351280798553   -1.25136374724652
O          -1.76200608500700    1.07624884160242    0.93352319345449
H          -2.56449009846293    0.58467786665076    1.11783891924476
O           1.24895399024404    1.20540763767617   -1.44041375843016
H           1.42891746409907    0.26636290148016   -1.21877418458784
H           1.33058032791119    1.70022337335434   -0.57351327685916
O          -1.18911088294625    0.85006658184947   -1.57415917098785
H          -0.11290006950608    1.09435780228087   -1.61508158814496
H          -1.20379018527769   -0.19443646901109   -1.58680010644206
H          -1.47741411621449    1.07144550022925   -0.62925921972607
O           0.21177205321891   -0.44223606819422    1.81885623783010
H          -0.17105203877459   -1.30348835471097    2.03428465758898
H           0.71334632017613   -0.65412663535106    1.00248840768892
H          -1.01816411947621    0.55007508261493    1.33046845511490
N           1.17826921193229    2.32463303172564    0.97716808362834
H           0.28481941790518    2.78923192598841    1.08695231882995
H           1.90423566901694    2.95912191250287    1.28379646698016
H           1.17744855089943    1.52153278077764    1.59677576449109
