    23
        -45.36320317  Gyration_radius:  2.3688825209 Dipole_moment: 3.242
 S          -1.63590868564200   -0.75184195025338   -1.43883122912909
O          -1.48503508375572   -2.18244414803913   -1.44975739519228
O          -2.23804842096955   -0.25226908729777   -0.20223233156278
O          -0.40894052814214   -0.01503964914482   -1.73553049891153
O          -2.64898912546173   -0.39868597166586   -2.61045604097560
H          -3.07320684372336   -1.23363736251137   -2.78302989626913
O           0.22517265485900   -0.51128084911904    2.27020148993198
H          -0.40712800368332   -1.08657273414681    2.70486769975136
O           0.58687539527868    2.10213169132988   -0.53458957655209
H           0.25476419893132    1.45239660034031   -1.19359753845988
H           1.42369659085847    1.69373872530158   -0.16430964583727
O           0.78266586568170   -1.64257482391393   -0.06484038068605
H           0.20901009239655   -2.39174103705156   -0.27019929058775
H           0.50665325184158   -0.99019134332673   -0.74284114451292
H           0.48590144167672   -0.97230343974417    1.43210906250951
O          -1.05935188011213    1.44786680065331    1.17837081685027
H          -1.65274915467239    0.81982859452066    0.59488769814001
H          -0.52990540736016    0.78939331143926    1.73418427489214
H          -0.33335719584177    1.86574797033024    0.44755064991809
N           2.58463818362415    0.74466679956820    0.58598239227262
H           2.44481073469275   -0.19063094472916    0.21921022807349
H           2.41607322477480    0.70290318988496    1.58409335928514
H           3.55235870475011    1.00053965757711    0.43875730705474
