    23
        -45.36220082  Gyration_radius:  2.33720629075 Dipole_moment: 5.460
 S           1.47496162362463    0.77577545270075   -0.76844139278466
O           2.10021144651599    1.74640439832053    0.08705773330144
O           1.84858121335541   -0.60139038311729   -0.44110971867333
O           0.03348788720947    0.90575024035348   -0.91022090653023
O           2.05146865641761    1.03712141875064   -2.23174498236780
H           2.92677490126028    1.36027876643786   -2.04374968008587
O          -0.67697365900460   -1.24061882034756    2.13139959054448
H          -0.35644589775073   -1.68477768518105    2.91852392817640
O          -1.48412600903178    2.31989037553285    0.80580328542179
H          -2.27780445404792    1.78414018738962    0.85615070220194
H          -0.94313936148500    1.94084795846827    0.08636886123235
O           0.52681487426149    1.05777662238403    2.13701435386386
H          -0.21310193878852   -0.35025222598078    2.12046649785640
H           1.23129816381376    1.27595420791427    1.50050129669574
H          -0.19037862640443    1.68455206672313    1.92318935003571
O           0.06670319229564   -2.27532949914793   -0.06064923094762
H          -0.28329106167862   -1.93435062556041    0.84451549358614
H          -0.63609364433256   -1.95231759848146   -0.80379208879494
H           0.88196635900916   -1.64095459701472   -0.23860492798559
N          -1.42356231855341   -1.23500916791777   -1.81515209301643
H          -2.42138814344335   -1.15022563250600   -1.67389914821711
H          -1.25333878365288   -1.50243730286693   -2.77545881928238
H          -0.98262442959033   -0.32082814685606   -1.64816811422990
