    23
        -45.36320299  Gyration_radius:  2.36904539598 Dipole_moment: 3.240
 S          -1.83541489892229    0.74592943097416    1.17799940020532
O          -1.32885414961621    1.80940527942920    0.30959689734944
O          -2.94689378932724    0.03595261833675    0.60332288669627
O          -0.73695258196963   -0.11190178280580    1.61812600664031
O          -2.38548283173838    1.45551150817588    2.48841267795233
H          -3.32824063933325    1.44549958808520    2.35443207082435
O           0.37630772118798    0.20308842690490   -2.29597861867641
H          -0.26571707625768    0.63918606681592   -2.85925977269509
O           1.85149709023240    0.19037742577210    1.26061239625328
H           0.95610729384853    0.04252377591351    1.63868908590035
H           2.02411128744078   -0.60707738726358    0.67925713424309
O           1.05388913637442    1.82583054598795   -0.40176830333743
H           1.51960624814198    1.16440898962683    0.35927562548615
H           0.92911164218334    1.24517110116442   -1.22033875578654
H           0.07600739106430    1.93792242917618   -0.05671097785074
O          -1.00593773587010   -1.36746605287675   -0.66468218115023
H          -0.80383363252592   -1.04472539697038    0.23885139770459
H          -1.95881341499478   -1.21897143591986   -0.71592009982127
H          -0.13651682814997   -0.43613067471976   -1.73764282127551
N           2.02007483097203   -1.80432077807547   -0.49598383361506
H           2.20683408322740   -1.40405205376344   -1.40773246180135
H           1.07069565286527   -2.16088680374647   -0.51416975180882
H           2.64841523116432   -2.58527481022033   -0.35838800143832
