    23
        -45.36321086  Gyration_radius:  2.36812676963 Dipole_moment: 3.266
 S           0.70942063980724   -1.65121829022735    1.44308437442540
O           1.83478972657480   -1.09301694102281    2.14366405890518
O          -0.57203976463838   -1.09399247780151    1.87255205236029
O           0.82221518867446   -1.58607212374334   -0.01426592731812
O           0.67729665328239   -3.19648253030028    1.81320767039640
H           1.33980585897952   -3.26383454051326    2.49390557643684
O          -0.82309469846883    2.12202115805504    0.57208046711176
H          -0.90256702269390    2.37909792298432    1.49258224488305
O          -0.99975252911411   -0.91788309375982   -1.78437013693359
H          -0.28826050092652   -1.36604092487255   -1.27334384102571
H          -0.57957453763987   -0.07736930367212   -2.13373708513569
O          -2.14005777196443   -0.07605027154367    0.22939547542793
H          -1.74263367275920   -0.47636373369155   -0.73306029515476
H          -1.58552626963893   -0.58746410322928    0.94644144017453
H          -1.76876970207664    0.86154264512212    0.30174099018552
O           1.52940397550905    0.91109078251438    0.33323069081188
H           1.32737637492009   -0.00306944036127    0.04112847708733
H           0.08383670094636    1.73528616099437    0.47237862360796
H           1.97347500365213    0.75477603196362    1.17591097800889
N           0.14750971329362    1.41600935018007   -2.34774775520586
H           0.43027068079636    1.66057940572145   -3.28787651792720
H           0.97607092042671    1.39416051227163   -1.76302727155371
H          -0.44919498693658    2.15429380493177   -1.99387428956525
