    23
        -45.36320226  Gyration_radius:  2.36897302218 Dipole_moment: 3.238
 S          -0.55090305623362    0.72201105057274   -2.11821955003791
O           0.56039439336444   -0.22828124890902   -2.18223287984465
O          -1.82478023346441    0.11143235699921   -2.39018218984195
O          -0.49914392469078    1.47496589241214   -0.86678246347453
O          -0.30543122712291    1.78330213952531   -3.27449382396194
H          -0.90652980357877    1.49779907268670   -3.95579210025603
O           0.31710924912307   -2.20651946768038    0.69686381420949
H           0.22667270851128   -2.93182846750349    0.07603855146407
O           1.36592976198513    1.48768664188873    0.98878952422436
H           0.69638446646862    1.73863230829843    0.31420237066990
H           0.83999668335333    1.08946945164998    1.74276573915500
O          -1.71675221051258   -0.56727140679586    0.23184552399195
H          -0.48262836376158   -1.63419526755452    0.56986300566250
H          -1.30832780591038    0.28632439465918   -0.02501878697986
H          -2.21050558698808   -0.79505930732750   -0.56622535274924
O           2.06364211508931   -0.54018334826892   -0.22620405903267
H           1.87540780281530    0.38843830931497    0.35260924677594
H           1.50872588385252   -1.25464282136588    0.22612115935360
H           1.54014350730745   -0.38069850001732   -1.11417360616462
N          -0.12693180360295    0.15534350461317    2.74647854226479
H          -0.32867289526281    0.52679674148249    3.66570410002909
H           0.27050236621505   -0.76976870772807    2.85868795862113
H          -1.00430203695659    0.04624665904979    2.24935528591845
