    23
        -45.36320171  Gyration_radius:  2.36890813693 Dipole_moment: 3.232
 S          -1.63815191081701    0.62457526901924   -1.49519007918232
O          -0.32133706766787    1.01957084157751   -1.99734366401156
O          -2.10312279604422   -0.61383963071160   -2.06051887118919
O          -1.65329505734142    0.66319163997107   -0.03438691750596
O          -2.65813575907276    1.74624383504682   -1.96961922828622
H          -3.08328006868187    1.34304931147861   -2.72046626046173
O           1.98203536589053   -1.13729683167036   -0.48233473037928
H           2.18911062004134   -1.39024547780064   -1.38391554008545
O           0.18957099723557    1.54290498663114    1.62425706403134
H          -0.65170935260587    1.36464679799177    1.14796437634845
H           0.42494276035273    0.67747468191612    2.07096768037904
O           1.56052883045767    1.41166290501520   -0.41966344793184
H           1.02173401499964    1.56794169577391    0.53895376431004
H           1.88247523114695    0.45322676102970   -0.39253950722982
H           0.79221959030261    1.36841116522849   -1.12348159998910
O          -0.57936603852933   -1.72426622913577   -0.11365341204480
H           1.04624785002012   -1.42433001747422   -0.32421027209728
H          -1.01387418773911   -0.86991977744765    0.09317914599491
H          -1.02833900892132   -1.97836484951627   -0.93002417942951
N           0.85102310422078   -0.89689462422018    2.46199992809730
H           1.77916901357455   -1.10917759461647    2.11583789567264
H           0.19975920073063   -1.48576073841814    1.95411728656198
H           0.81179465844298   -1.15280411967082    3.44007056842774
