    23
        -45.36320730  Gyration_radius:  2.36867080267 Dipole_moment: 3.253
 S           2.05384195053154   -0.97645634672994    0.37588152090449
O           2.49395161919549   -1.43336241651018   -0.91513141111716
O           2.13763867673681    0.47560778105835    0.52933800986403
O           0.72205016701160   -1.44648390141679    0.75543427566548
O           3.05758351382055   -1.60228849850165    1.43681884385948
H           3.76886525796054   -1.92332554615503    0.89099256430210
O          -0.45521499492052    1.85614180257314   -1.35505022750036
H           0.25343177287454    2.30235105781856   -1.82243487157772
O          -1.25440981409318   -0.11021016422084    1.85851508641551
H          -1.91433270886556   -0.15467235497407    1.10547626301072
H          -0.56448667360027   -0.77416542225704    1.63368681176321
O           0.13136070056560    1.80378070491521    1.16208598185016
H           1.02891170522858    1.29842815803791    1.00557942073182
H          -0.19301946954771    1.96245959118477    0.21766083775892
H          -0.53747257530983    1.01479514712582    1.57417390825468
O          -0.02640996073499   -0.74719627759878   -1.65459986416242
H          -0.33265272110330    0.88817003189095   -1.52935914541758
H           0.82436300556465   -0.95185460061783   -2.06258821458376
H           0.09858559866251   -1.09844317831194   -0.74755743481042
N          -2.72376857808815   -0.10388121377128   -0.36106479385881
H          -3.66072907388510   -0.48501112929569   -0.38275026946106
H          -2.14864196473148   -0.63980580106512   -1.00205059788673
H          -2.75944543327168    0.84542259682083   -0.71305668400958
