    23
        -45.36320432  Gyration_radius:  2.36881599771 Dipole_moment: 3.240
 S           2.08228247850155   -0.97282832422657    0.17005643207121
O           1.88811863899887   -2.33200878482350   -0.25930244606968
O           2.05832271013574   -0.01612844503969   -0.93677336659545
O           1.17152784716393   -0.54128909688237    1.22895677495345
O           3.54087908771141   -0.90460154381811    0.79586293875134
H           3.95003245383944   -1.69904516663819    0.46677295815924
O          -1.28237502899819    0.25301449515715   -1.93887599601659
H          -0.95227927905977   -0.05723490488894   -2.78415295698628
O          -0.17099042850111    1.70928769683716    1.44918080049045
H          -1.10167035354466    1.34455876549631    1.37892955902637
H           0.40005914045858    0.92466135102083    1.60738649629805
O          -0.73665324868092   -1.65508652490338   -0.17687744970543
H          -1.14255530535255   -0.49104039050012   -1.29877486761581
H          -0.16968934394581   -2.35046540565959   -0.53386337982778
H          -0.14509394368828   -1.23720964764136    0.48424344203261
O           0.45132781472596    1.88222418598674   -0.92891412117071
H           1.21886042087398    1.17680227997415   -0.94296729774778
H          -0.30629646590814    1.38547397466770   -1.37846471665860
H           0.17158338975776    1.93494976858176    0.14560915299819
N          -2.52095871076895    0.56049581951964    0.95159612295410
H          -2.84160070303054    0.87802531780586    0.04455482770081
H          -3.29422074246103    0.62459544928610    1.60090470046950
H          -2.26861043823069   -0.41715085930939    0.85491239249021
