    23
        -45.36320421  Gyration_radius:  2.36870463553 Dipole_moment: 3.239
 S          -1.94864055372138    0.49331024225720    1.12701226344197
O          -2.21327140716060   -0.44797933162082    0.03839828642119
O          -1.80933380235362   -0.15267258297744    2.40479840594000
O          -0.83590550068396    1.37276467090447    0.77338889997640
O          -3.22695014911687    1.43038750916214    1.23581124266704
H          -3.67302608525055    1.09203703608885    2.00628869408202
O           0.79000505660509   -2.12087652762451   -0.58641893587644
H           0.28483533760208   -2.90546555308622   -0.36518296836500
O           0.43784267519696    1.60028945028549   -1.51640638908895
H          -0.05190801533775    1.77059720114324   -0.68103999650696
H           1.33989076051185    1.27303961052474   -1.22798364317486
O           0.73603213846498   -0.56696573077846    1.56474059321895
H           0.12855032448262   -0.88186123273561    2.24608004325446
H           0.82885364892465   -1.57653835505770    0.24125583278518
H           0.29827334918484    0.26177199032126    1.27655099812412
O          -0.72248997798186   -0.52996399807860   -1.95062362611360
H          -0.20449464479952    0.45110194777176   -1.88379407287932
H          -0.07109412656767   -1.20296486051771   -1.56901229579607
H          -1.44512060533103   -0.47169865302729   -1.20136005030827
N           2.65001917180388    0.43169728841895   -0.60471592931362
H           3.55022191482350    0.89226135452984   -0.63869559427591
H           2.73837304323690   -0.47062604810436   -1.05678268046597
H           2.41933745746568    0.25835455220032    0.36769093225557
