    23
        -45.36320302  Gyration_radius:  2.36878173516 Dipole_moment: 3.231
 S          -0.94197712179191    0.81675427646252    1.93779822463896
O           0.05125690667412    1.75962295342595    1.42165366315384
O          -2.28834441014701    1.16562718371317    1.57025618567857
O          -0.56101059104012   -0.55276404898854    1.59826372285213
O          -0.87174198248017    0.90781661447541    3.52219945481601
H          -1.63502642795895    1.43468445367298    3.73863594798593
O           0.29252212189890    1.14771362948346   -2.01297029574391
H           0.01476836524320    2.06194921578057   -2.09508854614219
O           1.65795135164160   -1.43666047262456    0.49520982574871
H           0.87881402832418   -1.29379013480353    1.07731636095435
H           1.27987364810885   -1.77672790471984   -0.36797222801206
O          -1.66262072217440   -0.11348415411710   -0.73688175975410
H          -2.33526385234167    0.48574770100785   -0.38902687838675
H          -0.46945832854962    0.66476628251728   -1.60160461768159
H          -1.25589808200881   -0.45455275953592    0.08757605976194
O           1.91861605617338    0.96103150734661   -0.01303292039360
H           1.93181113707513   -0.12499263117839    0.21769621724747
H           1.42313943824611    1.04194035911066   -0.89108805497395
H           1.22742303734664    1.34377825161893    0.66792812746706
N           0.48584422769199   -2.00033143513063   -1.82892125485378
H           0.82545735292600   -1.34212379203015   -2.52014315268443
H          -0.48441428724409   -1.76833008134481   -1.64562449421020
H           0.51827813438775   -2.92767502414219   -2.23217958746656
