    23
        -45.36320338  Gyration_radius:  2.36887554823 Dipole_moment: 3.238
 S          -2.27375497402955    0.34248875735325   -0.15630134720834
O          -2.75272587377634   -0.74129073532723   -0.97203529057033
O          -1.91508346202206   -0.08006244791501    1.19812779703853
O          -1.17958377499165    1.10640176585888   -0.75240396994782
O          -3.48432793133541    1.36031347132916   -0.00698003785897
H          -4.23745463119115    0.83245971275950   -0.25424412327904
O           1.08555061329833   -1.85397830599698    0.92051062118732
H           0.57951389224064   -2.57783304519142    1.29427833895405
O           1.05011210127519    1.95569794185158    0.35582421204675
H           0.20226106925504    1.88287363815454   -0.13638075891838
H           1.70521758208406    1.41049829050143   -0.17073993997298
O          -0.10973555567613   -1.20630831697423   -1.35872332328317
H           0.68032363728006   -1.66303511120620    0.03602194164747
H          -0.95895326839366   -1.64949384666637   -1.48098427366954
H          -0.38763973047026   -0.27223962763463   -1.25075256179979
O           0.36937830769632    0.33826514393275    2.08657479628090
H           0.77875927441318   -0.51987578186993    1.74151710439922
H           0.73456958768976    1.13349662095868    1.40305313656423
H          -0.63237344128693    0.23038925369199    1.81684474868796
N           2.57463407555685    0.20759642881490   -0.95307258958158
H           1.90144490449204   -0.27061530725748   -1.54208945325199
H           2.92153750937625   -0.46971807356319   -0.28429142333937
H           3.34833008851967    0.50396958439893   -1.53375357411881
