    23
        -45.37611114  Gyration_radius:  2.37906209857 Dipole_moment: 2.485
 S          -1.86785966906484    0.68335611516014   -0.21556866473332
O          -1.78321274894387   -0.00654560937919   -1.48227412036041
O          -1.61779647601630   -0.17574954774676    0.93175968114512
O          -1.03510428660198    1.88307794214030   -0.17629861287595
O          -3.36816416835171    1.17467888400723   -0.07494571121001
H          -3.52308962016905    1.50507997862908   -0.95309399788668
O           2.51979887537038    0.41022588351215   -1.41295636238707
H           2.53843980104828    0.93755959745881   -2.21300203698260
O          -0.33465864489390   -2.46414310971560    0.53411028317104
H          -0.92871527960539   -3.19716752872852    0.36746223192422
H          -0.90405607434781   -1.66975354324670    0.63875158966556
O           0.55587418770257   -1.25903715066511   -1.76514290444399
H          -0.29389744917096   -0.77543451367698   -1.81537061475298
H           1.83332137788897   -0.29738926143972   -1.57808511619134
H           0.44744525842264   -1.85222915071942   -1.00206311885607
O           0.60547966875293   -0.45864534365134    2.41314578319062
H           1.22579569269433    0.69958715509350    1.45138611580179
H          -0.31681103801998   -0.29411492659019    2.13614049263314
H           0.79314978572059   -1.34671748129722    2.08786687579270
N           1.35762970292988    1.45439849085124    0.72547344803352
H           1.80060715128365    2.27159187762185    1.13067961619401
H           0.38059815640553    1.69672634699086    0.36481755604922
H           1.91522579697827    1.08064489541540   -0.09279239291841
