    23
        -45.36220131  Gyration_radius:  2.33795641522 Dipole_moment: 5.446
 S           1.73615808324850   -0.58705285217673   -0.06831906054619
O           2.48939468063595   -0.21909870385130    1.09881627181501
O           0.90235781445696   -1.77252371440999    0.13887438711580
O           0.97223355977086    0.48699008053305   -0.68272606184924
O           2.80655391215940   -1.00673542888139   -1.17283665408954
H           3.51183374643617   -1.35858667441901   -0.63926086759549
O          -2.04952586522138   -0.11034708807596    1.53096816283082
H          -2.43450408591271   -0.53764227715258    2.29825699136280
O           0.39752325122945    2.78258913526062    0.59983582620757
H          -0.48273011276763    2.97834952931585    0.27380697737222
H           0.72794194493636    2.03578511871305    0.06391304832942
O          -1.50953722634269   -1.66154608782196   -0.40000668573593
H          -0.49490709183534   -1.80558005410602   -0.17793521487191
H          -1.81869611131558   -1.05173328438284    0.36887657171828
H          -1.46279017904682   -1.04914901185889   -1.27808177550378
O           0.28995095331631    0.68026584322920    2.32541998026094
H          -1.13998470552195    0.19670822525972    1.82553537287111
H           1.11122037926633    0.25351978976318    2.02114057975303
H           0.35174478328176    1.59051146473048    1.97805990806087
N          -1.10005053309081   -0.13486509310234   -2.37146942616518
H          -0.25151384597134    0.22595269207304   -1.91580622398713
H          -1.71893158552524    0.63873842815492   -2.57471226242445
H          -0.83374177618734   -0.57455002679145   -3.24234985492652
