    23
        -45.37611120  Gyration_radius:  2.37890559852 Dipole_moment: 2.488
 S           0.93303698758904    1.76912531773326    0.00981258133522
O           1.14872517843930    0.92596868503149   -1.15612669567511
O          -0.41553360097942    2.27765140534811    0.11229767704754
O           1.37589006279208    1.10951867435157    1.23579872829507
O           1.87206067858074    3.03124233462376   -0.18377672085140
H           1.49963759198207    3.62267696320059    0.46104127007563
O          -1.68012537801359   -1.45161022786824    1.89119970558145
H          -1.94320493242963   -1.03507368974794    2.71328333948957
O          -0.96912901369238   -0.13978749599802   -2.34745792334937
H          -0.21249165928568    0.35388420286747   -1.96012645338747
H          -1.31068531635631    0.40881467524719   -3.05483132829263
O           1.23043973903843   -1.75267606565468   -1.34780896631729
H           1.01009095091146   -1.73458198251849    0.26552255647866
H           0.39896292973393   -1.81288897618416   -1.83231200974379
H           1.46620060545545   -0.80593299949128   -1.39751281234960
O          -2.21706764490236    0.31033315496818    0.05460424272820
H          -1.65489018276643    1.10298947020574    0.17376642063979
H          -1.98615549680355   -0.01415732476880   -0.83271862720104
H          -1.97186338276583   -0.82310337672655    1.17054430674750
N           0.89452379295485   -1.43796027558175    1.27184624522493
H           1.13696991198862   -0.39718012633279    1.30705545196906
H           1.51112447356068   -1.96817442976424    1.87756294737342
H          -0.11651628505244   -1.53907790294295    1.56833604417987
