    23
        -45.37611112  Gyration_radius:  2.37905848717 Dipole_moment: 2.490
 S          -1.15006589453520   -0.56335213171108   -1.53728212405469
O          -1.65946249939873   -1.51728728719212   -0.57902716952814
O          -1.27473553536809    0.81965162981460   -1.10284084683633
O           0.21439572775025   -0.86993887626337   -1.95943991593163
O          -2.05959868974407   -0.69940701693005   -2.82824540196854
H          -2.12388343806503   -1.64591216531576   -2.89384297846725
O           2.06953840504757   -1.28560804189829    1.60619352995155
H           2.27336703646263   -2.21252291456494    1.47287664441896
O          -1.60277407744266    1.30192018518925    1.48563477062928
H          -1.59398473385544    1.09509239570346    0.52471066616256
H          -2.52544166475090    1.34596147133138    1.73993481202233
O           0.57152247463224    2.46387240042755   -0.05128898009623
H           0.16935226006377    2.46849685889232    0.82503437450666
H           1.59782567869582    1.21683343597612   -0.25799059004956
H          -0.11935101281071    2.08311832358615   -0.62762794872168
O          -0.52219307884527   -1.19911204806103    1.81370584672453
H          -0.83993546478362   -0.29132139854098    1.95846193288655
H          -0.94037359310782   -1.46807317001008    0.97036535692174
H           1.08638133809809   -1.25366298981757    1.78422886680673
N           2.03224436399485    0.29153069045544   -0.52101427062018
H           2.91463351689526    0.43024905262229   -1.00096833090625
H           1.32946969819116   -0.19795221377678   -1.16108878786866
H           2.15306917286901   -0.31257617990659    0.33951055401989
