    23
        -45.37611097  Gyration_radius:  2.37896195845 Dipole_moment: 2.491
 S          -1.74925828682871   -0.73936036647481   -0.62933314566040
O          -2.21430332154648   -0.26407566636492    0.65338687613958
O          -1.14690395169276    0.29980347093697   -1.45051269495336
O          -0.87207225022283   -1.90149993869687   -0.51018693931422
O          -3.03517572753327   -1.22787798767575   -1.41673271242113
H          -3.48957422831800   -1.69927546663499   -0.72704728587884
O           1.81360319561430   -0.59403314438277    2.20725011261703
H           1.56845695758285   -1.24535462760898    2.86616822617803
O          -0.29701478035422    2.51259460270150   -0.25857773259600
H          -0.96471294618441    3.19931681032595   -0.23393402181510
H          -0.71892916624980    1.73691258197696   -0.69055067955281
O           1.44349774635736    0.85836120074655   -1.89286721724660
H           1.42226302097159    1.68371759433690   -1.39481885286707
H           1.73872184518561   -0.43164911239570   -0.94415636438349
H           0.50136829954605    0.63551795932308   -2.02363569223596
O          -0.26393799259196    0.95843132872632    2.00321698780996
H          -0.11859241758492    1.66774895219549    1.35385624456264
H          -1.02832411045396    0.46064748216803    1.64768563605638
H           1.06100243528288    0.06366813805146    2.19200190706711
N           1.64248454608042   -1.29277245722188   -0.34143226395197
H           0.62385238759326   -1.60634313951375   -0.42765082390793
H           1.81480895754194   -1.04888900874069    0.67393023209802
H           2.26873977779991   -2.02558919577936   -0.65605977574410
