    23
        -45.37611118  Gyration_radius:  2.3789148342 Dipole_moment: 2.484
 S           1.27538757748282   -0.74950889497300   -1.34630691984060
O           1.85132278831288   -0.27459752411120   -0.09740860407799
O           0.46260421958887   -1.93424217225917   -1.19288650601224
O           0.57539890225084    0.32038447413581   -2.05308626613049
O           2.50038896977164   -1.16476724658789   -2.26229510488159
H           2.05224961907135   -1.67901756815508   -2.92494723355374
O          -2.86930042220272    0.52334644163749    0.04854728546836
H          -3.41604221335617    0.25328838524013   -0.69078112299388
O           0.75028047753600   -1.07195951966777    2.18122325331361
H           1.20845726687846   -0.88111600874564    1.33276300339170
H           1.15464651022424   -1.86797129270665    2.52886491452179
O           1.06488123866362    1.73498425076344    1.50285669681062
H          -0.09228406476572    1.98563363673517    0.38509365264865
H           0.77190645214348    1.14937884881703    2.21065382310607
H           1.59937788423782    1.15818357276871    0.92318965398708
O          -1.45459688338715   -1.58087490789736    0.62892734209645
H          -2.39288222191797   -0.30507904147357    0.34207630116039
H          -0.85527411669630   -1.79987016024996   -0.11362333354543
H          -0.85588998888849   -1.41584206345797    1.37746418839559
N          -0.69632856461537    1.94181883137684   -0.47935763481871
H          -0.17643330877469    1.31995444726246   -1.17660823294696
H          -0.84034087834329    2.86788879649600   -0.86651650512986
H          -1.61752924323554    1.46998472504129   -0.25784264095928
