    23
        -45.37611089  Gyration_radius:  2.37891396067 Dipole_moment: 2.488
 S          -0.59373374801190   -1.82662930141862   -0.55939206860979
O          -1.91124171244393   -1.28666707376935   -0.31377946820330
O           0.17472691949316   -1.06432980604319   -1.53167570557560
O           0.16254023974526   -2.03719014955603    0.67254290964597
O          -0.81208176683894   -3.25927600603402   -1.20149732617887
H          -1.51036648391405   -3.59085021267457   -0.64768037368220
O          -0.18909695805621    1.56653855343835    2.45547168317107
H          -0.68129351229296    1.22549355439317    3.20379405537617
O          -0.54981957626372    1.44032410004089   -2.02289180865086
H          -1.17002938477494    1.51036391344223   -2.74972583214545
H          -0.36965120276140    0.48072969722310   -1.90919219278463
O          -1.78544295919630    1.27509879930060    0.42187244087958
H          -1.95237927278901    0.32576741656014    0.25045671500000
H          -0.82881398944375    1.54910339919230    1.68762305126333
H          -1.37994204124384    1.59834759026514   -0.40096146226554
O           2.13042547025356    0.73799916108090   -1.14979045103655
H           1.62806564553859   -0.04467120493437   -1.44895552363212
H           1.59296421556898    1.48528587957422   -1.43682439183173
H           1.93697568422111    0.40439033253460    0.43215931322548
N           1.63007877470825   -0.01085289628851    1.35272860983041
H           2.43154381329451   -0.25255335967040    1.92493465661624
H           1.06245046256731   -0.88462703489767    1.11296353979658
H           0.98412138261988    0.65820461826326    1.85781962979267
