    23
        -45.37611065  Gyration_radius:  2.37903121086 Dipole_moment: 2.488
 S          -0.59490198938723    0.32322895199713   -1.88297907018201
O          -1.62348274471152    1.11146565050425   -1.24385913504614
O           0.75567161772155    0.74534725283790   -1.54396698072905
O          -0.77565980657292   -1.11054361515054   -1.66951444282215
O          -0.75082149122228    0.56757642915323   -3.44135057978848
H          -1.69665376323458    0.52220130756794   -3.52798961149204
O          -1.17322492521162   -1.28774502125906    2.34311011880365
H          -2.07385790072649   -1.61382987342100    2.31135388425269
O           1.10539661497256    2.19700941405571    0.64932217061279
H           0.93932405030371    1.75724105357428   -0.21395881841071
H           1.06125589509748    3.13915638462170    0.48101895175450
O           2.50289318274637   -0.31124434851195    0.20166274901460
H           2.08966937251179    0.02705621803253   -0.61643509219267
H           2.43939248337113    0.42686652549861    0.81885292023114
H           1.35380649267727   -1.43599116078901    0.45782930167718
O          -1.30955784227585    1.13570928253489    1.40600536139989
H          -1.57790824801169    1.12747219064868    0.46455441284500
H          -1.23016602414436   -0.32604505330791    2.07690972465476
H          -0.43788970017677    1.56712664245203    1.40176967673741
N           0.47838494384211   -2.02353767787116    0.40802086095914
H          -0.04286623051814   -1.71017640878524   -0.47141396495112
H          -0.14657012172278   -1.81856098950936    1.23711197685015
H           0.70776612469473   -3.00978314492542    0.35394558577693
