    23
        -45.37611088  Gyration_radius:  2.37891758677 Dipole_moment: 2.485
 S          -0.72493180162056   -0.15456712528704    1.85816379380705
O          -1.20882361336912    0.96144118694425    1.05977683794534
O          -1.18273108396742   -1.44177816320516    1.38804648249160
O           0.72569202742946   -0.10359122944491    2.02365492651251
O          -1.34757507510205    0.03938550190398    3.30279250096247
H          -1.20259516224970   -0.82584066193530    3.66980276907376
O           1.98736492928036   -1.45664993811577   -1.56447619581671
H           2.40166398521334   -2.24023461554745   -1.19999639745954
O          -2.07046562936314    0.46830685502523   -1.40075526259817
H          -3.01203696182358    0.29448982088579   -1.43552113181444
H          -1.85358035614406    0.60943968315488   -0.45243453662689
O          -0.56093096751074   -1.81311389995464   -1.18013279946491
H          -1.08276749964101   -1.06655051990607   -1.52106980463014
H           1.00397651584141   -1.62723259362558   -1.51012879237729
H          -0.76360768957613   -1.82996040657642   -0.22245966129791
O           0.04028540607269    2.38470260487102   -0.84588572127003
H          -0.49813988741869    2.02858442059825   -1.56213340981434
H          -0.44535553047585    2.13341610177945   -0.03631682345721
H           1.32551512745326    1.44382904445011   -0.50863817768144
N           1.98356705944838    0.73758917769646   -0.08160939038948
H           2.88584442312568    1.15684595155735    0.11414846497339
H           2.07974436147820   -0.10305670292994   -0.71735864803144
H           1.51988741293573    0.40454551764617    0.82253096695265
