    23
        -45.37611101  Gyration_radius:  2.37896047209 Dipole_moment: 2.486
 S           1.67908185289809   -1.08715880094186    0.03539692644435
O           0.96018869573762   -1.03842647998634   -1.22865383659076
O           2.28048664778770    0.17321205343039    0.40607693492640
O           0.84955017451250   -1.64511841606755    1.10065440650361
O           2.87468436492924   -2.10499459558776   -0.18084501447791
H           3.41824791398987   -1.89281296057855    0.57006878271311
O          -1.52488166401721    1.49989694738756    1.98488439921182
H          -1.18743131019335    1.59219073585770    2.87713291590132
O           0.20539819773296    1.32906480520834   -2.15888231217992
H           0.59157628257096    0.47845663915792   -1.85296965118281
H           0.85483411690122    1.72107683116391   -2.74417001615976
O           0.47588659821038    2.13827996739952    0.44957706404997
H          -0.79553649525173    1.83616653752005    1.38974985863031
H           1.20416337275162    1.49222581065798    0.55314395754741
H           0.23830062521627    2.08070398625466   -0.49178929365144
O          -1.67673675563160   -0.83462856985023   -1.70122651239539
H          -1.61565708227984    0.06369536703911   -2.04623533702677
H          -0.75183453925231   -1.14904300591026   -1.69259445733673
H          -1.82746745556062   -0.86805921067606   -0.08037331300920
N          -1.64063688342983   -0.93769388415563    0.95614453904633
H          -2.28271839353974   -1.58768873425674    1.39596934492758
H          -1.69700107419931    0.02026695614814    1.40253526440624
H          -0.63249719989397   -1.27961197922085    1.05640533968407
