    23
        -45.37890815  Gyration_radius:  2.28780178458 Dipole_moment: 2.660
 S          -1.44813987148585   -0.80240114172098   -0.15739628582025
O          -0.98473577049241   -2.16845259036557   -0.16235395107209
O          -0.98525191381620   -0.02390799538699    0.97744996742639
O          -1.15541912155130   -0.11075107348301   -1.41634881510155
O          -3.02781830898504   -0.86932857632108   -0.04704492047165
H          -3.20153343847400   -1.75826111933982   -0.33859574938087
O           1.11107403185648   -0.79156973417168    2.48627638536528
H           0.24089652547994   -0.60200355266554    2.08783918658609
O          -1.16670812470837    2.56206535400568   -1.15841986119142
H          -2.03497153919742    2.84749214598602   -0.87103478736857
H          -1.24117454684911    1.60137001815197   -1.32955961661699
O           1.65701364121707   -2.09323393535509    0.19856659231011
H           0.72507009592045   -2.35257517059855    0.04440170116954
H           1.70040109283566   -0.80526829872009   -0.63902086036098
H           1.66675939264813   -1.78973852078998    1.12981689872994
O           0.79331323983448    1.94701086311847    0.60214092328924
H           0.25955844920942    2.51506029863034    0.01641594067944
H           0.13291626240269    1.31164958448207    0.94417194051267
H           1.50502886490252    0.06250323754022    2.67741900548187
N           1.46161651383643    0.11027424906681   -1.16071023278629
H           1.42324162852663    0.91487308656485   -0.46510394924676
H           0.47181676366163   -0.00070391327597   -1.48993932728784
H           2.09704613321380    0.29589677467276   -1.92897020484705
