    23
        -45.36041116  Gyration_radius:  2.31781901629 Dipole_moment: 3.828
 S          -1.05839419524248   -1.23438279232231   -0.67408523810790
O           0.08180995747834   -1.54563266338169    0.19173912596141
O          -1.34027351836139    0.21805971562946   -0.61842532651393
O          -0.96217642369690   -1.72575323989538   -2.00411897888792
O          -2.30520991479413   -1.92792660462402    0.01384662280474
H          -2.26785920580205   -1.73465503615157    0.95345288305928
O           1.50873780504988    1.90625616233079    1.24813610065262
H           1.66261448603712    2.74413241077590    0.80858893246570
O          -0.92517767332585   -1.11563557059618    2.48486447198101
H          -0.45071197891221   -1.48668827942350    3.23105348350801
H          -0.41870726624740   -1.37314996153830    1.66478791928219
O          -0.91335598409133    1.30076550803519    1.52320752669517
H          -1.14569794477794    0.85880794421237    0.51749213243325
H          -0.93826936683147    0.49892429009004    2.11485846226433
H           0.08943116490929    1.60230042262837    1.45283119935063
O           2.13078384042143    0.09082964918075   -0.44657706756061
H           1.77902702544908    0.34441753398509   -1.33513964377954
H           1.83470048295281    1.18691763509132    0.60820217302054
H           1.55936229293891   -0.64893025576561   -0.17824756691179
N           0.73208135954002    0.52683540045132   -2.70408658625147
H           0.05549772910732    1.27009732269174   -2.57664642844565
H           0.20872793296311   -0.34287504588555   -2.62306856246990
H           1.08305939531351    0.58728543460993   -3.65266560465114
