    23
        -45.36041121  Gyration_radius:  2.31793119814 Dipole_moment: 3.824
 S           0.11529635898239    1.59020253060259   -0.74597806122378
O           0.06662320710923    0.34734148623277   -1.52030321884753
O          -0.25408588705922    1.31187440197737    0.66061850918790
O           1.32289066117501    2.33041127509649   -0.86156218816448
O          -1.06167530378184    2.48341401386829   -1.31701074832750
H          -1.83987017626654    1.92731481569809   -1.39965405697421
O          -0.41837268704713   -2.45748785103631    1.12293655270431
H          -0.06697040162407   -2.63949218484831    1.99604333100754
O          -2.43283746272954   -0.11164538803534   -1.53009055829268
H          -1.44627097731592   -0.03158893370948   -1.65496154815089
H          -2.74485719964827   -0.73680386788791   -2.18688137470481
O           1.53364127759230   -1.52700715518610   -0.24795822782540
H           0.37285179787672   -2.16853647715181    0.55407685116339
H           1.08248638610108   -0.95596707445193   -0.89303795920014
H           2.04404439845574   -0.88897070764666    0.30865948602746
O          -1.91264255506531   -0.44230737688861    0.99652672263212
H          -1.15880309783795    0.38559804182914    0.90786342182796
H          -2.32172641823422   -0.45076354719522    0.08758427021347
H          -1.33624346038587   -1.31466251750313    1.08461243950445
N           2.57650010859612    0.56965413108498    1.07886698101005
H           3.54677109174800    0.73430628016975    1.32002663468261
H           2.01243284561094    0.80804400992332    1.88600829902427
H           2.32081750380489    1.23707206603233    0.35361443301997
