    23
        -45.36655791  Gyration_radius:  2.28262760025 Dipole_moment: 2.043
 S           0.21329923057609    0.53757029178496    1.62635938824949
O           0.31374538001847   -0.86167851096733    1.22196162736985
O           1.52958673012083    1.17208126049345    1.59773955088100
O          -0.79272339596296    1.25500068270158    0.88132602725125
O          -0.23538915135198    0.55087357644505    3.13769037358053
H           0.56879305245414    0.31223887145409    3.58688075479446
O           0.16688397896015    1.15488669883214   -1.59114907573979
H          -0.27119558903373    1.44498292034444   -0.76372742819475
O           2.17907463061624   -1.69046672472882   -0.47167942140950
H           1.58393910871477   -1.55265272219869    0.29705286017882
H           1.61225191305457   -2.03872911823051   -1.16823809227167
O          -0.68989754311017   -1.28845138067804   -1.25606300572635
H          -0.42176323152172   -1.26970996595379   -0.31817955957648
H          -1.64407575743316   -1.06290185446181   -1.21869318650395
H          -0.15420725975759    0.21514215632402   -1.69775208858844
O           2.45168799682566    0.83038486738272   -0.69848648089448
H           2.51912095269414   -0.19405210292085   -0.69952431885376
H           1.51681074082214    1.04495778146120   -1.21356963881020
H           2.20747244009578    1.06077189334353    0.28099306450068
N          -3.01583742463667   -0.08985939286810   -0.53017631294115
H          -3.70227842849068   -0.55063061714881    0.05438954101293
H          -3.51303047650752    0.55015968757056   -1.13741203224776
H          -2.42226790716229    0.47008170205386    0.08025746400692
