    23
        -45.36041113  Gyration_radius:  2.31791199547 Dipole_moment: 3.816
 S          -1.71850976166478    0.11068864457396   -0.36112736767953
O          -0.86627020328291    1.19963989219485    0.16787094050561
O          -0.87226241146851   -0.98504502594068   -0.84056976975333
O          -2.74939494012357   -0.26858841088007    0.54064194348589
O          -2.40087428598959    0.70871727050642   -1.65965991359058
H          -1.72331438241982    0.79711957139045   -2.33397725095475
O           2.71068348493935   -0.06098796563063    0.34720841089139
H           3.08739652924548    0.31213502428272    1.14578588673522
O           0.21434339763476    0.09680617156250   -2.86738360529588
H           0.62585909631446   -0.49994904061861   -3.49518770993031
H          -0.16989574899776   -0.46949748325929   -2.14157850215939
O           0.86248756261721   -1.65794576916248    1.11379841719020
H           0.24336928257748   -1.63735959136101    0.36404385672434
H           2.03530631022774   -0.75721889708938    0.65154331206053
H           0.35177006887653   -1.23446606974753    1.84687339917766
O           1.26809505714509    1.52223646651835   -0.96419235872589
H           1.06198933148556    1.06779211880805   -1.82714187654500
H           0.29358153170709    1.43651300135868   -0.41321928743171
H           1.92433222921765    0.89746632324102   -0.43426267034447
N          -0.82381165592230   -0.30287662934279    2.71475365633728
H          -1.60887194134567   -0.39537231624666    2.07287463727850
H          -0.59685384569855    0.68431505191685    2.73479054942421
H          -1.14915469498040   -0.56412236677719    3.63811529239742
