    23
        -45.36655771  Gyration_radius:  2.28259785259 Dipole_moment: 2.047
 S          -0.81956902495501   -1.51150491821621    0.14824349804000
O          -0.83181757802543   -0.48443204140421    1.18577116482392
O          -1.97134321318756   -1.35473784769873   -0.73768017989584
O           0.44265521052122   -1.57605455206477   -0.54774757009899
O          -1.01970412775761   -2.89910962207118    0.86940109639764
H          -1.94891391704122   -2.88578853329583    1.07401117607755
O           0.56000399432477    0.80600098665739   -1.71237260313280
H           0.64290098520903   -0.15147268187471   -1.51994770168144
O          -1.89972090513553    1.90658801480160    0.76450489062751
H          -1.12200175566233    2.45344701449749    0.91888573122901
H          -1.65862194168326    1.01753673729549    1.10443000948246
O          -1.90572917567331    0.98549076549336   -1.60868153881552
H          -2.02835136462884    1.49465266523360   -0.72567774180296
H          -0.83146925634521    0.99553786191688   -1.78484559882166
H          -2.06478983362773   -0.00373790749190   -1.34747903195592
O           1.06044602351230    1.40844260362101    0.77820031162132
H           1.92959731750672    0.95559129573720    0.82550050210517
H           0.83989620986556    1.23270354511825   -0.85379462607287
H           0.43756052779015    0.72293802689537    1.08472717745758
N           2.96104408268503   -0.52165127599850    0.58709479166674
H           2.20624128960517   -1.08872261759959    0.20341601265604
H           3.32184487757351   -1.00714969942607    1.39906110642369
H           3.69984157472740   -0.49456781971050   -0.10502086639749
