    23
        -45.36655836  Gyration_radius:  2.28256502767 Dipole_moment: 2.039
 S           0.52785796772850   -0.98923638632546    1.31123632424104
O           1.37284868104145    0.01175737632694    0.66690866336648
O          -0.15941125031131   -0.41051708845560    2.46404473369218
O          -0.35594871107551   -1.64575008893339    0.37853357029230
O           1.48555186277009   -2.09629278260093    1.89692782334823
H           1.82695842230680   -1.67126048393409    2.67677049604200
O          -1.89168880269108    0.35738634493639   -0.44113040543533
H          -1.56467667729201   -0.52433736239632   -0.16459568597255
O           0.76393221374382    2.59257150021484    0.72250048072870
H           1.19590018675464    1.71411536491413    0.79901057005214
H           0.69178247126885    2.75452446242417   -0.22428519388982
O          -1.39316172243221    1.59964036032439    1.63973400751758
H          -1.75188710921027    1.12794001089417    0.72609908785647
H          -0.95305527927941    0.80018169343330    2.12813884649631
H          -0.59562463566138    2.17266967713086    1.34008493545008
O           0.34534988144210    0.85900584202225   -1.69006548269940
H           0.31547177279810    0.07811353335426   -2.28337412207700
H          -1.17428624654946    0.67987966177261   -1.05675033435898
H           0.86075335739655    0.53609534074181   -0.92710320396677
N           0.14971401424277   -1.71421699255186   -2.53455537927485
H          -0.65063979473159   -2.06534145801508   -3.04618185654105
H          -0.00460482632649   -1.92221524446171   -1.54896895394012
H           0.95886421443137   -2.24471328889839   -2.83297890040018
