    23
        -45.36655856  Gyration_radius:  2.28265527498 Dipole_moment: 2.025
 S          -0.44097982944994    0.10200013808431   -1.66498162624935
O          -1.70150131361518   -0.63559366112804   -1.72197983818531
O          -0.54769875768198    1.22202188799161   -0.73474162665497
O           0.70623804338487   -0.73037101425296   -1.39425214676540
O          -0.23917277966328    0.71272311993660   -3.10456374946043
H          -1.12134540437954    0.99101718033979   -3.32750736897852
O           0.14844704190312   -1.68417723537054    1.01834572473567
H           0.46365660483349   -1.58755395976628    0.09520591037008
O          -2.16043473914830    1.13533579775101    1.36894214592380
H          -1.68909326514092    1.36647303975309    0.53914909674482
H          -1.50868421310443    1.25240952705351    2.06843046452451
O           0.81354548767280    0.78059745067026    1.56312175873908
H           0.43361501077604   -0.82652023416750    1.44364958031590
H           1.75996856945107    0.69295817401031    1.31933332125347
H           0.40076771650884    1.09078858034690    0.73520137472165
O          -2.26254616148855   -1.29599774964188    0.62164265880740
H          -1.24723978489255   -1.58687577923441    0.88837520419057
H          -2.38157966708132   -0.36273069494893    1.03272666061775
H          -2.16632656254723   -1.10866474943873   -0.39171724925256
N           3.05339055456315    0.21502322197004    0.13646392738310
H           2.40054637715663   -0.13413284973326   -0.56375368966115
H           3.67638724713118   -0.54688331957376    0.37501942076905
H           3.61003979872057    0.93815314950514   -0.30210994438771
