    23
        -45.36655803  Gyration_radius:  2.2827400159 Dipole_moment: 2.037
 S          -0.77666898590001   -0.90343055677258   -1.25022229900494
O          -1.45482313649062   -0.47139432610035   -0.03167083836176
O          -0.95697031597931    0.08510847880214   -2.31146968849639
O           0.60223074300256   -1.25838725008067   -1.01649766679940
O          -1.50989069027116   -2.20648855811603   -1.75029662123581
H          -2.30685946338293   -1.85257670253325   -2.13114187716336
O           1.65035687074611    1.05295429933027   -0.24024070726084
H           1.51499762487724    0.17106961877323   -0.64614068469206
O          -1.76842692838130    2.09733111454105    0.54981705806349
H          -1.29486860000361    2.12565380255695    1.38809444321081
H          -1.89113398501118    1.14224560692863    0.35766854768679
O          -0.15511938923890    2.27344250983063   -1.41157720929761
H          -0.83338707070016    2.39824457132804   -0.65107043332397
H           0.72948965695420    1.86276387548980   -0.92682339864988
H          -0.51143958454317    1.44947484178939   -1.92705057218773
O           0.28481058446599    0.35374267230408    1.87191101625998
H           1.26874141857571    0.93951433859544    0.67580578133714
H          -0.41268243662790   -0.03477026461868    1.31111884210118
H           0.83941807444928   -0.42142729901150    2.10513142197722
N           1.65251492943256   -1.98131847219385    1.65227417370833
H           1.31225817182440   -2.84893103579107    2.04808733627172
H           2.66448933576530   -2.02088209567741    1.65558556000195
H           1.35296319637555   -1.95193914934322    0.67870781580370
