    23
        -45.36041117  Gyration_radius:  2.31793013879 Dipole_moment: 3.828
 S          -0.32956074927987   -0.23646542925443   -1.71321558960210
O          -1.27078589338482    0.42103325198534   -0.80311453308886
O           0.99008346370374   -0.36326652526150   -1.05382579112096
O          -0.78363195291124   -1.46009626946779   -2.27547061706091
O          -0.10688912203311    0.79225650982464   -2.89694071466208
H           0.03013552616353    1.66039633241553   -2.51076724235182
O           0.58720729658227    0.59080562824740    2.60375793637532
H           1.15124382456299   -0.00165118929067    3.10346681746531
O          -0.29915665223316    2.76797961419952   -0.72168355894117
H          -0.87889482644312    3.45387056979938   -0.38545356238974
H          -0.81825820760782    1.91633893217789   -0.70063643836715
O          -1.23742525978746   -0.87406191090396    1.56442956070315
H          -0.18433298503787    0.02486769693544    2.26088414779226
H          -1.46955152031737   -0.37928964468935    0.75998554716553
H          -0.82681106356528   -1.70306479002714    1.21568819288513
O           1.59615203878376    1.44254533344460    0.46689492095070
H           1.21927386545383    1.12375243727753    1.39278489063284
H           1.38358504597908    0.58983613904253   -0.23231760581435
H           0.98133085996311    2.14983190918269    0.12708034344102
N          -0.04940745511686   -2.84544744244575    0.16932386158447
H          -0.41445941124622   -2.51974403692882   -0.72369054376777
H          -0.22329477291043   -3.84193244016686    0.22763614670896
H           0.95344794085619   -2.70849465613194    0.12518384158679
