    23
        -45.38252918  Gyration_radius:  2.27571441146 Dipole_moment: 2.963
 S          -1.62294940710914   -0.85786103265295   -0.52325183136019
O          -1.01059154500014   -1.37226213934360    0.68167095894010
O          -1.62197596434203    0.60101760095971   -0.57972108831644
O          -1.07051126224136   -1.43290552356722   -1.74247662994594
O          -3.14277246025782   -1.30128938567131   -0.47153862223545
H          -3.46915786077765   -1.06318281224791   -1.33385678895019
O           1.30874434130095    1.41151927007899    1.62436796679793
H           1.67026686418328    1.98080108747036    2.30449139505911
O           0.74034897066045    1.77714813473284   -1.05206847957344
H          -0.20035501795811    1.51606396408062   -0.97704039869238
H           1.05398765595282    1.83879648321352   -0.13197817373135
O           1.65771616548493   -1.23547484026308    0.91823484281496
H           0.70854816533430   -1.46678246932986    0.96766513467777
H           1.70612430173145   -1.01248713877398   -0.65713896932335
H           1.71399634865100   -0.33686362489192    1.28962218559019
O          -1.24242923857924    0.93851237835165    2.01645822153506
H          -1.54230578048807    1.09643115449540    1.10131359217864
H          -1.24306622728760   -0.02861079841272    2.06299912639680
H           0.34476908533779    1.28355240056228    1.84851243902044
N           1.42401350474704   -0.68131101570201   -1.63033011697335
H           1.29478242283134    0.37466579431871   -1.55901208509109
H           0.45714707479075   -1.07664696186418   -1.80852589018021
H           2.08566986303722   -0.95283051554267   -2.34839678863705
