    23
        -45.38252911  Gyration_radius:  2.27577718435 Dipole_moment: 2.963
 S          -0.01282596909609   -1.75519605509460    0.75004614794340
O          -0.36423464070816   -0.66787740100280    1.65873884785548
O          -0.64434272418726   -1.62907846971600   -0.54475402291416
O           1.43125118399661   -1.93233968927225    0.67334843594567
O          -0.58900883360384   -3.08152264809103    1.39665990082135
H          -0.04601394778607   -3.20112137371985    2.16977830521938
O          -1.22083941751680    2.06355174206085   -0.77139049006784
H          -1.80558196225888    2.79024170301606   -0.98914380048456
O           0.73733167833241    1.72127039511393    1.14298117172067
H           0.33971718177485    0.91488865696982    1.53072536017380
H           0.06344284966497    2.05619490690626    0.52442142585152
O          -2.52642913330861    0.06864336552746    0.32496018252558
H          -2.30582691521667   -0.65115230030520   -0.28376957526245
H          -1.90942824223212   -0.09489654908954    1.06331883024415
H          -1.79335093614067    1.35485906291107   -0.36422124685082
O           0.25986934444779    0.24781811968429   -2.23400104871583
H          -0.28118622907105    0.99090848896352   -1.91210062017363
H           1.57522022300898    0.30390881614912   -1.33893304357437
H          -0.12720868519833   -0.54439622850534   -1.81038038618749
N           2.20065439194089    0.27843430573469   -0.47609945844808
H           3.17716448910531    0.44526522299176   -0.69003515107903
H           2.04687097972271   -0.66862659171765   -0.02650253769923
H           1.79475531432846    0.99022252048471    0.20635276315583
