    23
        -45.38134526  Gyration_radius:  2.27263826952 Dipole_moment: 3.492
 S          -1.53262459261103   -0.76169561872992   -0.39622724812323
O          -1.43577982071951   -0.60327717987543    1.05483417726500
O          -1.85589617442994    0.50641617901429   -1.03403122589509
O          -0.37931439731994   -1.40990456129141   -0.97125287840336
O          -2.76460168399665   -1.72174216870727   -0.65200930074992
H          -3.49687893034011   -1.21867774658384   -0.31080539959673
O           0.63224843922500   -1.29668029943003    2.59445182863029
H          -0.18638032058930   -1.16283124316500    2.07499603827866
O           0.25093740931832    0.73539875436183   -2.57674283516044
H           0.40684792783027   -0.20744724501012   -2.69842354997902
H          -0.62003967117953    0.76084963736417   -2.11729893417431
O           1.97991722230736   -1.23742697375372    0.26855831408513
H           1.19271870043209   -1.51169960368116   -0.24489236604415
H           1.91976518897577    0.26239952967437   -0.07049512925727
H           1.70677245048228   -1.35999035357374    1.19944900931297
O          -0.55315092390756    1.86374624533062    0.98840455623405
H          -1.14571371239064    2.18150573608388    0.29878803978651
H          -0.88941548972634    0.95607378819015    1.16637299098699
H           0.59193177855823   -0.66941038495446    3.31796950048128
N           1.64737011808830    1.25692556706571   -0.38839149985754
H           2.44158997994739    1.88638040500195   -0.40150141993471
H           0.88003785299773    1.60222620417400    0.24767226696289
H           1.20965865902667    1.14886133248026   -1.34942493473594
