    23
        -45.38252924  Gyration_radius:  2.27571979656 Dipole_moment: 2.965
 S          -1.53721694946557   -1.06454100452429   -0.38346088074261
O          -0.34933986719684   -1.80182399519415   -0.01364310664611
O          -1.76226765659631    0.10553851024381    0.46016495557168
O          -1.58155163572738   -0.71200489585672   -1.79633738276797
O          -2.75994254133214   -2.03921046814495   -0.13028789749636
H          -3.49540855209434   -1.57083647332403   -0.51290425726942
O           1.73098506957068    0.84727966536314    1.62183666754047
H           2.29664004182200    1.11332922988658    2.34753209006941
O          -0.11986166201546    2.18921618883331    0.07556877778150
H          -0.85765634365777    1.57616638590585    0.27184870669518
H           0.59281523917713    1.92080496779950    0.68294293713043
O           2.04543449534707   -0.75064641364415   -0.60916306219213
H           1.28424956071524    0.19756560824390   -1.63683911020003
H           2.15418124459598   -0.20232035223887    0.18832944447876
H           1.28381975599243   -1.33151219833223   -0.41067211065807
O          -0.20805256682560   -0.72322943086675    2.43405444619940
H          -0.93664457925136   -0.27998897203017    1.95975017112305
H          -0.05449334890570   -1.50298831447124    1.88099497944322
H           1.02882591063976    0.25708437481722    2.01489160778878
N           0.51922769864907    0.81109998732631   -2.05462809424431
H           0.77369687555897    1.20442621346974   -2.95333774738719
H           0.29946586796374    1.55296693471063   -1.32095099172002
H          -0.34690605696641    0.20362445202650   -2.11569013249802
