    23
        -45.38252914  Gyration_radius:  2.27569258104 Dipole_moment: 2.961
 S           0.03287561466483    1.53788290110299   -1.13050356465149
O          -1.28550115690122    0.97682155948184   -0.84997941751747
O           0.87073360525508    1.61495549216927    0.04567918911827
O           0.66944981695003    0.85505163843306   -2.24884827376644
O          -0.20903073070755    3.03105198133022   -1.60056745961189
H          -0.64666445651419    2.92757579918056   -2.43993501302436
O          -0.56094740634449   -1.09367365466310    2.19837139918757
H          -0.85602177177105   -1.38302672969876    3.06240767732906
O          -1.38463892672860   -1.65961083861532   -0.37461038193247
H          -1.21976127045636   -1.63631217380432    0.58511031864154
H          -1.54224962038699   -0.72553729153518   -0.62243047163944
O           1.90361273012098   -0.65560033733964    1.03191323182900
H           1.57439100234112   -1.32195465952965   -0.37573563769153
H           1.71335957811677    0.26584730481135    0.76440068413494
H           1.15355260358525   -0.90956553585427    1.59894466978579
O          -1.18071799339657    1.41756250560840    1.75647508336146
H          -0.83350680142580   -0.13736447056906    2.11418956346648
H          -0.30587022423381    1.79237671163912    1.57856658174065
H          -1.53791905962729    1.30279181921010    0.85564150692534
N           1.06441026556337   -1.53640333878709   -1.28695571596049
H           1.52238482072093   -2.25348133950686   -1.83759085706636
H           0.99250846852306   -0.61724409390518   -1.80923353189988
H           0.06555090265140   -1.79214323915887   -1.01530957075798
