    23
        -45.38252908  Gyration_radius:  2.2758619943 Dipole_moment: 2.969
 S          -0.98799191038789   -1.45199273302121   -0.74853684506858
O          -0.34614903624726   -1.72730976216592    0.51775977006744
O          -1.64326757293761   -0.14777155141492   -0.77827306056937
O          -0.10383948913590   -1.62386420866781   -1.89360075541413
O          -2.13547011231733   -2.53221041792244   -0.90835952376412
H          -2.42694921652434   -2.40865335067092   -1.80639476423251
O           0.33633317884456    1.72237878258706    1.80734174337335
H           0.32221956799398    2.34111926270559    2.53831217648751
O          -0.03704380352072    1.99456168773355   -0.91408119841464
H          -0.75845369542476    1.33487059617104   -0.96891314660868
H           0.11065687546807    2.12072468596975    0.04038729867112
O           1.92400088982587   -0.42664179795720    1.10927733453664
H           1.52466198575852    0.37116166542095    1.49998169746379
H           1.18451102060280   -1.06177112542138    1.02819001382215
H           2.03990835324545   -0.08727675530131   -0.44169097317355
O          -1.74700443078118    0.12755392628874    1.85060043093961
H          -1.98181202380554    0.20128228421394    0.90620926013682
H          -1.31450074171830   -0.73804211925467    1.88235067492168
H          -0.48234409770020    1.15930879778733    1.89993578801414
N           1.74795777004805    0.15465164607334   -1.43795488218104
H           1.14624508201791    1.03193820796022   -1.36661068523533
H           1.09247503695337   -0.61732783465335   -1.74983592010030
H           2.53585635974255    0.26331011353925   -2.06609444367367
