    23
        -45.38252908  Gyration_radius:  2.27573766389 Dipole_moment: 2.966
 S           1.28772437942933   -1.13152135271856   -0.83967558999142
O           0.74520949890486   -1.62733682913372    0.40585272842847
O           0.26652872514618   -0.56344473225743   -1.71480939421600
O           2.39969173196475   -0.20788139539291   -0.65807775043396
O           1.87657577241835   -2.39087189486365   -1.59895350527126
H           2.34858829218361   -2.00368144199182   -2.32974976873503
O          -2.35378287840405    0.44000376131197    0.78103963245067
H          -3.28634082193910    0.48494023344273    0.99471370762216
O          -0.74165950431606    1.81247473871081   -0.99020598550246
H          -1.45539261223605    1.49192216332074   -0.41005992026995
H          -0.41574249227856    1.01138438338446   -1.44929644561063
O          -1.76570189173949   -1.76205743987806   -0.51895307708059
H          -1.09619436818349   -2.14589530728370    0.06568089479769
H          -2.21848242918493   -0.42006042399857    0.29321765564251
H          -1.21604171213234   -1.35483311378605   -1.21504912679486
O          -0.03826310513991    0.14891182882533    2.25668673261702
H           0.82925857222825    1.22826065264307    1.47211371236151
H          -0.94585000530950    0.28963304251761    1.93234715738121
H           0.28471611372464   -0.63157324956586    1.76336517035537
N           1.28681035398721    1.74725553602313    0.66106233527293
H           1.88240052780116    1.03400972676947    0.15185827502052
H           1.82626007437308    2.55159311748896    0.95967689073921
H           0.49968779870265    1.99876800643421   -0.01278434878271
