    23
        -45.38252908  Gyration_radius:  2.27587192786 Dipole_moment: 2.963
 S          -0.58463885644227   -1.30901631187191   -1.26051387926906
O          -0.71851584843843   -1.68408906580628    0.12962777567359
O          -1.00837479610085    0.06405481380412   -1.51884387761402
O           0.74447716434814   -1.56113397299597   -1.80143404271903
O          -1.57679800173585   -2.24241622429127   -2.06887246415924
H          -1.35072663306178   -2.06651537246725   -2.97697514826511
O          -0.49308078820367    1.63377291758147    1.85314266116526
H          -0.82784215760905    2.23760679333081    2.51694655185547
O           0.62359145886323    2.00268125533669   -0.64346924760254
H           0.26635328348442    2.09042257585759    0.25852238724400
H          -0.02178247500833    1.43472264710875   -1.11204436198326
O           1.02391648929631   -0.67417480597714    1.90104202572153
H           0.55460545872344    0.15709005915650    2.09389423400973
H           0.37901119410713   -1.21517079981652    1.40276215968788
H           1.95629512932400   -0.31987910915065    0.66009788465232
O          -2.43279042421780    0.29626801529390    0.69778231086526
H          -2.16214463730800   -0.61508903160902    0.88011839885756
H          -1.28856682104058    1.16962822251896    1.46896972778710
H          -2.13491746887243    0.41480933604153   -0.22414200512032
N           2.24553093488867   -0.02490792988130   -0.32252120904813
H           1.77636513060726    0.91598147361357   -0.50052468777859
H           1.77916772260673   -0.70716569693143   -0.98577033915157
H           3.25086497178906    0.00252020115504   -0.44779485481051
