    23
        -45.38252902  Gyration_radius:  2.2759087392 Dipole_moment: 2.961
 S           0.04696809047123   -1.27336222866459    1.42180060524543
O          -0.29434669445237    0.09585065423504    1.79664201454641
O          -0.63141152062666   -1.71087590007442    0.22202519851599
O           1.49076414995230   -1.46122424877235    1.37040719690843
O          -0.47971674150679   -2.20129356098484    2.59243526507569
H           0.09037545731925   -1.97726622902913    3.32145977016349
O          -1.28659050293916    1.53879803090536   -1.52415069891659
H          -1.89261288312812    2.10255245800288   -2.00612373885027
O           0.74209925826396    2.04672015913466    0.27723006940969
H           0.04127243507999    2.08583863621704   -0.39816831133088
H           0.37362315793692    1.47887032302513    0.98460695596615
O           0.17877421418539   -0.72102683163240   -2.13548827526832
H           1.52272017328972   -0.28639923967933   -1.40132708766151
H          -0.17819790991690   -1.26045481922667   -1.40166934253952
H          -0.36544967059142    0.08665623139704   -2.13779478526535
O          -2.51486468363206    0.19128532084419    0.36296833944823
H          -1.86801131671008    0.35609958601533    1.07516286527858
H          -1.83100740333874    1.06661752865118   -0.83387189835560
H          -2.30488263098894   -0.71846942671991    0.10774762943714
N           2.17782295867163    0.05828705403169   -0.63431289256069
H           3.14302594396739    0.12157759664848   -0.93686357732971
H           2.05778045376910   -0.60967976220472    0.17954328689870
H           1.78186568492524    0.99089868788006   -0.30225858881633
