    23
        -45.38252906  Gyration_radius:  2.27564727101 Dipole_moment: 2.971
 S           0.48943680034465   -1.80203037785033    0.39505248731224
O          -0.51958272513898   -1.62580878734257   -0.64509939698404
O           1.59119145192889   -0.87343906440549    0.27008769562393
O          -0.11489687262873   -1.80555759861957    1.72070573642208
O           1.10218298609355   -3.24720822618136    0.18296181126255
H           0.38309146294327   -3.82588155909335    0.41679364508898
O          -0.00003191954589    1.98054687684904   -1.55635191088680
H           0.05082621132145    2.63527536427248   -2.25356887815541
O          -2.07885333547427    0.54536974684984   -0.44299661522926
H          -1.51050881815777    1.17306169581082   -0.92435020979576
H          -1.67726918377704   -0.33195569645377   -0.60961714886648
O           1.17867724974318    1.69498812249818    0.92436299068774
H          -0.12079405188700    1.20514130281833    1.70218606813424
H           1.54367502261372    0.80482182885768    0.74776305576643
H           0.84156764311949    2.00051300872456    0.06317011454349
O           1.07020835860055   -0.29931138731740   -2.29240716537174
H           0.35562868057343   -0.88353336045007   -1.97614791517090
H           0.42603932517511    1.15305009489856   -1.91657633292263
H           1.74129031044445   -0.41402426352116   -1.60366093117944
N          -0.99399356564880    0.64015041101599    1.93608508107795
H          -1.61875761493050    0.68782667727494    1.07340066944715
H          -1.45702347786974    0.95794721936089    2.77975462321628
H          -0.68210393784410   -0.36994204799461    2.00845251597860
