    23
        -45.38252907  Gyration_radius:  2.27582441248 Dipole_moment: 2.961
 S          -0.07910153102298   -0.81595055733225    1.72398658828000
O           0.17138507240895   -1.71373535196405    0.60028372797350
O           0.69583389493904    0.40276812860911    1.65041377603113
O          -1.50587670445736   -0.58322370079626    1.90474498031007
O           0.41428229722214   -1.57724300969433    3.02249313409911
H          -0.21406819130829   -2.28735529819780    3.11085174270317
O           1.30852573500163    0.71032714344416   -2.03172879516828
H           1.91717988168942    0.88942852311042   -2.74929908276031
O          -0.85482555146533   -0.98255662108861   -1.76606858846069
H          -0.11399368883458   -0.43123201678290   -2.07608215117136
H          -0.50686491959133   -1.44450330454596   -0.97597423920684
O           2.47368699546024   -0.60575525512801   -0.08336971886377
H           1.77528540586335   -1.27412467210117    0.05141349167155
H           1.82866455372348    0.21374271540536   -1.33981133732548
H           2.32293004961291   -0.00518343426427    0.66073825038980
O          -0.00454585659882    2.25643621536573   -0.15708665810615
H           0.49966160141248    1.90569657167611   -0.91291242744775
H          -1.41232051612654    1.51909926578223   -0.24891949357465
H           0.32896179948532    1.76035124385372    0.61722737233546
N          -2.13163268157331    0.73240798360042   -0.25814664224544
H          -1.80275578912407    0.03763775322518   -0.99712809682167
H          -3.07692356325324    1.06218853092728   -0.41566752504630
H          -2.03348829346391    0.23077914689789    0.67004169240532
