    23
        -45.38252914  Gyration_radius:  2.27568399347 Dipole_moment: 2.958
 S          -0.30420734114450    0.35007081291309   -1.85161237851771
O          -1.32809144111652    0.83595508832087   -0.93116552594643
O           1.03904962640876    0.61038778455469   -1.38353939461707
O          -0.53204255753289   -1.04461801033659   -2.20521115653124
O          -0.47572988086399    1.18158015021608   -3.18896995916094
H          -1.31001446602779    0.87579157458448   -3.53133601911575
O           0.54567879844201    0.80552925855529    2.32305241484985
H           0.72325790379088    1.25222158981842    3.15148639056374
O          -1.64670681456175   -0.55208948815617    1.34012132551896
H          -0.97972725991243   -0.09204771617885    1.88089141696524
H          -1.73465447385653   -0.00309962779844    0.53414111787113
O           1.99184134017546   -0.85188759786500    0.65287439844974
H           1.86424562021150   -0.30473263653349   -0.14789337652709
H           1.64601683783695   -0.30809300813675    1.38310038943477
H           0.82314115244930   -1.88864856692425    0.34839198658544
O           0.27400724714848    2.50891836887243    0.34570063920930
H          -0.53166587473092    2.12056054431503   -0.04500320420401
H           0.45877171100411    1.51990021376396    1.63164077144006
H           0.96112597809186    2.19708593217169   -0.26079762209987
N          -0.13367108110136   -2.26400862693042    0.06537089886765
H          -0.84498972576630   -1.75402627609412    0.67442077170040
H          -0.20011299757464   -3.27277553950257    0.13697498884615
H          -0.30552231136663   -1.92197425362833   -0.92263887358280
