    23
        -45.38252838  Gyration_radius:  2.27571535074 Dipole_moment: 2.978
 S          -1.77103316023480   -0.35618058564778   -0.61549500524963
O          -1.36596862336996   -0.67238235893773   -1.97880976944405
O          -1.21913734793587   -1.31588520965977    0.33595891017796
O          -1.50760723762615    1.01621887842076   -0.24301864323062
O          -3.34441619843344   -0.53378618170244   -0.56885716031500
H          -3.47937770332033   -1.38523008769643   -0.97327333909059
O           1.58832515340802    0.67826139263412    1.83422753737717
H           2.07292309299749    0.91742873587177    2.62502865270645
O           0.98451942837115    1.96538103730527   -0.53291364005992
H           0.01752048878710    1.83763977916094   -0.45983943669288
H           1.33879669618168    1.67758264230451    0.32752241722082
O           1.44361203758124   -1.62201415592914    0.31525816861275
H           0.47089248093111   -1.71043492681248    0.38465649772202
H           1.47646971093870   -0.91344975833413   -1.10826777261165
H           1.67254180820422   -0.91114875334936    0.94056316737909
O          -0.97866768753028    0.42399178737590    2.31454147305741
H          -1.34441415757714    1.06438964317347    1.68700064732645
H          -1.11364246237901   -0.41948925512308    1.84286068203915
H           0.63032374158187    0.60346021244260    2.10382128094503
N           1.20735301512944   -0.25519048316428   -1.90291021217984
H           1.78205953273797   -0.37422878615895   -2.72916390774695
H           1.25540142840824    0.73088282447855   -1.50083028013156
H           0.18352599315103   -0.44581641065782   -2.09806022781179
