    23
        -45.38252875  Gyration_radius:  2.27578310825 Dipole_moment: 2.969
 S          -1.51385443527269   -1.03139669673753   -0.53619068496647
O          -0.76664043567747   -1.87642304605114   -1.45827658000633
O          -1.06295629329095   -1.22233949583261    0.83911690725609
O          -1.54164839015741    0.36037204681080   -0.92804928452025
O          -3.01425213718579   -1.53673539369967   -0.58921395518226
H          -2.93094216405844   -2.47916549931346   -0.48136044002284
O           1.01398340567587    1.86197529196189    1.36050825868691
H           1.26745052367851    2.56713422715151    1.95708078585383
O           0.78862839228807    1.60872963998156   -1.38084755841929
H          -0.14097717873988    1.30461252931444   -1.36601175710472
H           0.97464080042502    1.88450629468731   -0.46553613852242
O           1.55001927521483   -0.84412665698907    1.30348080237850
H           0.61022301892696   -1.11869795100084    1.29312815594551
H           1.80580168410789   -0.95578028749449   -0.26228129521906
H           1.52534049165954    0.11499113035578    1.47241272680026
O          -1.53169208972196    1.26971890411392    1.59239366568556
H          -1.43289618134058    0.29942842261887    1.62710527038698
H           0.04033972416839    1.70296771705175    1.51124843120368
H          -1.83598702731704    1.40768367642416    0.68380040154759
N           1.63422600471434   -0.86874013581117   -1.31114917572108
H           1.44747854294948    0.16418158945941   -1.49689147112087
H           0.72015756400558   -1.37238742403950   -1.49442594913226
H           2.39355690494609   -1.24050885296500   -1.87004112580737
