    23
        -45.35869180  Gyration_radius:  2.3593816689 Dipole_moment: 4.220
 S          -1.77675807355417   -0.85566841848163    0.08585717671731
O          -2.00554323838123    0.07200311644890    1.20596144543613
O          -1.47321548935041   -0.10069997172551   -1.12804546483552
O          -0.82159941991565   -1.88116177746172    0.38277843931002
O          -3.17506730608801   -1.54933606482350   -0.15459503385014
H          -3.75884745841882   -0.79855572412240   -0.15170575985030
O           1.90128034210255    0.14503324153781    2.05932082342400
H           1.80277334906444   -0.34628954713976    2.87709112625852
O          -0.21502257564905    2.15469182418438   -0.87251548399624
H          -0.69104939781248    1.29949977337403   -1.05078988414337
H          -0.82550898715645    2.85694599747517   -1.10393254149582
O           1.84551906938303   -1.64572645192207    0.25634134255890
H           1.86351194818877   -1.21833976975396   -0.63284077085350
H           1.95297595605777   -0.55891098436853    1.31657737192739
H           0.91955391929307   -1.93739428809279    0.34975751418185
O          -0.08971424990199    1.57725897988577    1.61462496264975
H           0.00058181864913    1.93379582559175    0.66750924109543
H          -0.91973172649793    0.92581594965456    1.53810290299798
H           0.77411324604094    0.98505670013726    1.81934335059774
N           1.31846813583264   -0.39358712245953   -2.07497547216336
H           1.53252075264538    0.59604554704241   -2.09914213253074
H           0.31670020311243   -0.48052698953468   -1.91739714980563
H           1.52405918152144   -0.77994986640459   -2.98732600430848
