    23
        -45.38252872  Gyration_radius:  2.27564690792 Dipole_moment: 2.975
 S          -1.43439999766674   -0.79788352114735   -0.97340586838714
O          -0.57044132781461   -1.58783991349358   -1.84071341668343
O          -1.30043690250305   -1.20788980954138    0.42123991144809
O          -1.27949278502709    0.62848705030294   -1.15517108604290
O          -2.92134035359754   -1.13958518350296   -1.39937290116634
H          -2.93014296472910   -2.09160402632779   -1.41666628050317
O           0.83017675961423    1.56315992145292    1.79262471121193
H           0.99997044074876    2.16322719748471    2.51966597261014
O           1.17697172294522    1.68475586279265   -0.94405879372486
H           0.24632263728345    1.47610277210656   -1.16123163078546
H           1.18253882366463    1.82051700296071    0.02043437698161
O           1.17361426457516   -1.15438189188452    1.45131717002151
H           1.74768226412835   -1.09026475300508   -0.03065685541657
H           1.18203546941925   -0.22746945204163    1.75052552083590
H           0.24046268501722   -1.33002119675868    1.21226914934264
O          -1.74193442171218    1.20214359032803    1.41924516238367
H          -1.83171257791683    1.47953166740570    0.49583400029846
H          -1.72281204620409    0.23005878599374    1.33647224488427
H          -0.16200966806924    1.48364368381841    1.72003492812014
N           1.80975579472922   -0.85323841726841   -1.06847369940036
H           2.64216726064871   -1.22465518153112   -1.51154277017089
H           1.74095251817070    0.20842451602427   -1.13522624088799
H           0.92207241429433   -1.23521871416860   -1.50314361497307
