    23
        -45.38252875  Gyration_radius:  2.27565393816 Dipole_moment: 2.973
 S          -1.49041416010316    0.01467050130845   -1.19169758446880
O          -0.70937053087994    0.39500638497644   -2.36130284071005
O          -1.08517545375437   -1.29445779975293   -0.68863118694692
O          -1.51060225168841    1.02906459970341   -0.16110927222013
O          -2.98623605001284   -0.14070083598778   -1.68930382955146
H          -2.90336976626233   -0.69119366698866   -2.46184184123516
O           0.95871812015855   -0.32192158860552    2.30726251938645
H           1.18715499715415   -0.50499827809423    3.21928110484212
O           0.82928969377212    1.96186033707160    0.76047060964920
H          -0.09916043956215    1.82900458448108    0.48272406802422
H           0.98245499856821    1.28703739028995    1.44595799398593
O           1.50844118374589   -1.59180214915850   -0.08099444776216
H           1.47461674499699   -1.27758638585470    0.84036980483815
H           0.57061331576312   -1.68850343838392   -0.34536542327769
H           1.81757400831330   -0.28151066610136   -0.92799731091319
O          -1.59084760708918   -0.73952463507664    1.84826762010173
H          -1.86110137314629    0.13059548995780    1.52039506422592
H          -1.48928489250519   -1.24434441513799    1.01941972460321
H          -0.01879214009343   -0.50372341371106    2.22083890658047
N           1.68142839583678    0.68372078126014   -1.36030681470991
H           1.49724067862318    1.34941675265316   -0.54838195935236
H           0.77601486421989    0.62719924556893   -1.90789450638866
H           2.46080765395612    0.97269121556786   -1.94016042869693
