    23
        -45.38252876  Gyration_radius:  2.27572477278 Dipole_moment: 2.968
 S           1.13470423056871   -1.53261281056563    0.07328965747590
O           1.61171611886659   -1.39833052049664   -1.29683950878350
O           1.54431502276466   -0.39373575598992    0.88958008047734
O          -0.28284180753435   -1.80465654323974    0.16288855812209
O           1.86800602386350   -2.80116573249994    0.67532945932208
H           2.78197946376635   -2.65012474155457    0.45485080397805
O          -1.66243274641928    1.55056470138207    1.08445727094598
H          -2.25252197237016    2.07308382735779    1.62858311339776
O          -1.98693987809338   -0.14273714838607   -1.07328993338220
H          -1.53006694695180   -0.90217575688975   -0.65934178280626
H          -2.08106756563915    0.51066062539216   -0.35723099975828
O          -0.59879437560650   -0.42857885230465    2.43988800543102
H           0.32286112269825   -0.30352322192437    2.14443964571198
H          -1.30661487912139    0.82628605137488    1.67156472024573
H          -0.87907533128506   -1.18659641087028    1.90685571287930
O           0.82877334080420    2.03128852189372   -0.00096056873710
H           0.54473958895335    1.38347682336689   -1.42536983362775
H          -0.04984015179206    2.08112770171230    0.41673008634113
H           1.25358190267819    1.24879351063435    0.40642014104257
N           0.25906656032209    0.65977983845902   -2.15466648793156
H           0.36033666718574    0.99350999077218   -3.10625397139547
H          -0.74077116385736    0.37691087745147   -1.91684174574627
H           0.86088675619508   -0.19124496508359   -1.96408243320205
