    23
        -45.38252875  Gyration_radius:  2.27569470393 Dipole_moment: 2.969
 S          -1.33685591655342   -0.79501868279029   -1.10569848126212
O          -0.48958085657247   -0.87003615736391   -2.28861835453216
O          -0.81617632457001   -1.63177063266941   -0.02874735552203
O          -1.60893658042246    0.56011282368855   -0.68017043315966
O          -2.73305213384993   -1.41765064107494   -1.52074962531178
H          -2.49066919133185   -2.23916410984690   -1.93683263006457
O           0.73215375326639    0.95077456303955    2.21450106802677
H           0.88275026460136    1.24769009129688    3.11257550422386
O           0.46422086451693    2.20203222594920   -0.23306459706401
H          -0.40056553449767    1.79722214352150   -0.44550546844991
H           0.63101094821519    1.95870178673096    0.69511404374514
O           1.71052863397910   -1.16206648963035    0.73338028851749
H           1.53177063761995   -0.46856874132690    1.39370897681633
H           0.82994456287121   -1.53042784879865    0.51520840210704
H           1.93043091225721   -0.35958067074581   -0.62201942881934
O          -1.66975217232109   -0.06505863263629    1.92421475304816
H          -1.40935325889385   -0.86769978889876    1.43399064835786
H          -0.19566443139009    0.58394859252227    2.19194780413034
H          -2.02139234893414    0.49587663599884    1.21783110346264
N           1.71296099991225    0.25717500383460   -1.46432827546583
H           2.50525463255722    0.37523698579823   -2.08521556484073
H           1.35070622005441    1.17957027380636   -1.07164323175137
H           0.89026628947822   -0.20129872039568   -1.94987913618944
