    23
        -45.38252873  Gyration_radius:  2.27576591589 Dipole_moment: 2.970
 S           0.84726303811826    1.49704790595468   -0.82679844581003
O           0.29359144295012    1.72892376015587    0.50393635728563
O           2.18990407526641    0.93673452570756   -0.74909812924394
O          -0.04199818824016    0.73903307847499   -1.67885800736595
O           1.00021760599087    2.92176589382763   -1.50208829878112
H           1.70460428637669    3.32469268593775   -1.00384952416143
O          -2.07619077991583   -1.16642819751963    0.82123093305673
H          -2.93347722820912   -1.47187279044714    1.11971119225382
O          -0.34151799973179   -1.88394955173768   -1.20505842113267
H          -0.28130559675294   -0.98752220187028   -1.59185395232552
H          -1.05238910907088   -1.82141747014488   -0.54233665358180
O          -2.21259903914864    1.24969447748615   -0.19336608620095
H          -2.21768305289778   -0.25032933201919    0.45161285837625
H          -1.44050102038754    1.62527353378754    0.27065326778574
H          -1.85796668232318    1.09658663824075   -1.08104594949780
O           0.21337214790124   -0.38611801191551    2.14908242238480
H          -0.65257543146045   -0.74139170110725    1.87913849698400
H           1.24940533591618   -1.12196847140452    1.19291828305914
H           0.26276499783738    0.49581637418015    1.72666111262831
N           1.75077415590199   -1.41134236846216    0.29728576758628
H           0.99961172012560   -1.80059771854669   -0.35112990867969
H           2.50989844112512   -2.06286341260751    0.45979393955650
H           2.08679689062289   -0.50976764597351   -0.14654125417745
