    23
        -45.38252883  Gyration_radius:  2.27573684128 Dipole_moment: 2.968
 S           1.28300509159648    1.27611253404026    0.60641891430773
O           1.32098292024333    0.95678458851221   -0.81758862491631
O           0.30033354411119    2.31417736799282    0.88814448442497
O           1.13321629224637    0.10341943537466    1.43930843993723
O           2.69652997973724    1.89560624522553    0.96356302327059
H           2.68541378184738    2.73614414779427    0.51620343075609
O          -0.56544977805818   -2.28878048467619   -0.88646302156684
H          -0.62954846252413   -3.17237745029933   -1.25050982062568
O          -1.25506167187028   -1.11478704278246    1.51667308812162
H          -1.13544358946701   -1.69546080722203    0.74398263667235
H          -0.36378498366062   -0.75522008445714    1.69881957609702
O          -1.00072138535177    0.22446839169264   -1.93953318832351
H          -0.10912504911472    0.56550073520045   -1.72160719199850
H          -0.95312636619349   -0.73012201508971   -1.75127487209051
H          -1.75805605119113    0.83108182447578   -0.67946931168024
O           1.93112196689494   -1.59413509251843   -0.47438947302787
H           0.40771543700401   -2.10704602786742   -0.76039759622998
H           1.88131645673977   -0.70346812778726   -0.87021015993261
H           1.91196567231048   -1.39403595917507    0.47256095968279
N          -1.94747469510779    1.11505526810743    0.33081906565447
H          -1.12998107399581    1.72679558861515    0.61407446001987
H          -1.86724225027916    0.22381465004250    0.91004984014376
H          -2.83658577591641    1.58647231479932    0.45082533130415
