    23
        -45.38252858  Gyration_radius:  2.27572188008 Dipole_moment: 2.975
 S           0.44012817560043    1.81123844741082   -0.41005549309874
O           0.46201924218949    1.45062816292506    1.00433429445059
O           1.70499946078618    1.48733212878623   -1.05650382159636
O          -0.71164411539213    1.28049659473593   -1.10531847417385
O           0.30450308943748    3.38838679144387   -0.46798250722735
H           1.14867668749441    3.69178625909598   -0.14850392712717
O          -1.57243471004059   -1.70525982794492    0.98300299372152
H          -2.24217892774005   -2.23358557043010    1.41860054744268
O          -0.78326719821748   -1.34712427359494   -1.63889992869466
H          -1.17162702420189   -1.64502893559257   -0.79684499753635
H          -0.88681411450405   -0.37448868320649   -1.63120126912853
O          -2.11281540783711    0.85778990683707    1.13768177323486
H          -2.13427350627420    1.09580470481067    0.19935218743899
H          -1.85369599978443   -0.75340687476910    1.08747481805340
H          -1.22304540340615    1.15923276626093    1.40155927367539
O           1.05327248224304   -1.09955851822338    1.58085491345692
H           0.15337213632628   -1.46852922901583    1.52755020618900
H           1.62706629487114   -1.25904583362660    0.10587434722603
H           0.92587291927981   -0.12904985837908    1.55685361386432
N           1.73156740319854   -1.11819916211884   -0.94591640086101
H           2.49584785083773   -1.65167605293896   -1.34398730508198
H           1.85825814302356   -0.07532513378422   -1.08416401760130
H           0.78621250211936   -1.36241778868928   -1.37376084662670
