    23
        -45.36239544  Gyration_radius:  2.33304449987 Dipole_moment: 2.073
 S           0.06949214287453   -1.77804298503305    0.12885613882961
O          -1.02681122978532   -0.99586274956993   -0.45228410469284
O           0.81032603676038   -2.53369518325865   -0.83782871573568
O           0.87128979608434   -0.94212124004673    1.01240831073730
O          -0.63041105374815   -2.84587106873000    1.08259491821869
H          -0.41514543795780   -3.67445325415309    0.66707873327831
O          -0.53900701346889    2.68998509242098   -0.06086378119521
H          -0.80423389155056    2.98163346432442   -0.93442051986115
O          -0.37586869649901    0.31005401216361    2.90715844239829
H           0.15696383726904   -0.27786954847455    2.31402590873648
H           0.20501297186337    1.03157017147870    3.16033956583202
O          -1.90726439000339    0.83670514449675    0.94808249800498
H          -1.60604537749963    0.01833911300902    0.33755041296863
H          -1.42530281074136    0.66920484062407    1.83851518689247
H          -1.42156842217909    1.66285033422708    0.52784128232578
O           1.54113338075131    1.23682640571617   -0.42868485267560
H           1.42050513149189    0.82544154608251   -1.31930847612581
H           0.33596329482123    2.19110062908819   -0.18313104083725
H           1.46134609295749    0.48329801105158    0.18257825638579
N           0.91663092004903   -0.25044747370079   -2.57827291805333
H           1.00553983001991   -1.12363618256672   -2.06071139334061
H           1.42450882267271   -0.35514802009150   -3.44863263519089
H          -0.06705393420518   -0.15986105911381   -2.80289123666088
