    23
        -45.36239525  Gyration_radius:  2.3330379436 Dipole_moment: 2.087
 S          -0.63428882556040   -0.51685038918193   -1.58546368872710
O          -1.49436719133624   -1.66031241656517   -1.66964709547905
O          -1.17129650466502    0.56112464941117   -0.74808201199532
O           0.74580630123023   -0.80162823748009   -1.21598808129083
O          -0.55787252464933    0.08789260366823   -3.05798935802321
H          -1.18604376802577   -0.44198199047748   -3.53776513125454
O           0.91647242949155    1.21755047885025    2.28167890462842
H           0.22455810969551    1.31572708342201    2.93750828376687
O           2.40588421961680    1.18792461568635   -1.22051676792490
H           3.13407514156416    0.91221352184945   -0.65851308172637
H           1.85299858046947    0.37992826493982   -1.37154522581230
O           0.73148559067143   -1.20108625111229    1.45110374471391
H          -0.22645102194805   -1.43288901363835    1.52662798706080
H           0.88411456180292   -1.17432286641923    0.48997149726419
H           0.91389168107912    0.23925668616000    2.01265073389499
O           0.46057459078837    2.24187697644327    0.03048653475150
H           0.64334035810471    1.90837587047033    1.00528857261049
H           1.29879372220188    1.98085753732687   -0.50107762561577
H          -0.28912805023467    1.58038765827029   -0.33524178738906
N          -1.91325671702752   -1.58750640793921    1.17148246204870
H          -2.41363453152046   -0.71011313109354    1.24954898316438
H          -2.49596002752372   -2.31290990958454    1.57232464584249
H          -1.82969610420693   -1.77351530299359    0.17315748547160
