    23
        -45.36239596  Gyration_radius:  2.33302063273 Dipole_moment: 2.065
 S           0.58201070301832   -1.42176057996452   -0.90764706761827
O          -0.80096732195999   -1.16853569730204   -0.48968156008999
O           0.77946930596095   -1.33003100047954   -2.32424335189535
O           1.50431284811774   -0.63600752962591   -0.09881527206186
O           0.87065314698762   -2.93987990333656   -0.51825070419559
H           1.01265507536824   -3.35285271398670   -1.36356479296679
O          -1.13718784389146    1.88459006123211    1.63835397715988
H          -1.92636366531958    2.26569974197989    1.25044466442412
O           1.33251850019616   -0.88783856169050    2.47436589659256
H           1.74225106395642   -0.09777057264077    2.83495157332871
H           1.54580332754015   -0.89217151104220    1.50701756557041
O          -1.12743600501712   -0.61751513496899    1.89413711575531
H          -1.21090850910033    0.42437326683821    1.84977385820733
H          -1.04343657365709   -0.91601220276171    0.87537885719190
H          -0.19262853307547   -0.79306217587539    2.27930178573020
O           0.62082701043904    1.90879908438476   -0.22832898592255
H           1.10895042691545    1.06942645234220   -0.15791899906674
H           0.11197756381439    1.81040200585376   -1.06992913453003
H          -0.40755158690877    1.97361068032023    0.93921653486550
N          -0.73875752021319    1.10798560165512   -2.40409424533642
H          -1.65087979144537    0.75156519577260   -2.14474107106703
H          -0.14553970142268    0.28968146849420   -2.53321412779025
H          -0.82977192040338    1.56730398499820   -3.30251251641768
