    23
        -45.36239551  Gyration_radius:  2.33307393556 Dipole_moment: 2.080
 S          -0.04649335637222    0.71458089412070   -1.63439988696070
O          -0.43862553241201    1.38002613498868   -0.38732175841804
O           1.15247181002741    1.24414102168008   -2.21422708892462
O          -0.06868574059257   -0.73174372425164   -1.46203839140946
O          -1.21594431281715    1.03149272602101   -2.66959947276970
H          -0.77932949506085    1.56200662481159   -3.32779077523373
O          -0.33728492619354   -0.90482896050958    2.56859290589832
H           0.07277298494090   -0.32209205696646    3.20951183913891
O          -2.26948078640633   -1.78576596417647   -0.59029927403741
H          -2.01680895279922   -2.63895885875248   -0.22929260517981
H          -1.47844301357591   -1.44943104902216   -1.08264044515402
O          -2.03330309024276    0.15007376233583    1.03994899952912
H          -2.29610447805309   -0.63385062463077    0.43210417064036
H          -1.38830672240401   -0.26364402729474    1.75220068778558
H          -1.39773820658432    0.74564533980712    0.42719449119956
O           1.41816357692197   -1.24050962428622    0.72982744272911
H           1.94160319164050   -0.40234024702856    0.70962747804335
H           0.37916659904687   -1.11988871109202    1.88330754988685
H           0.93660480377543   -1.22855375329337   -0.11616600688912
N           2.43821277910006    1.21761112557943    0.35496733026727
H           1.88040890374895    1.91401261391798    0.83471389055287
H           2.14173361441798    1.24500887921605   -0.61948337976129
H           3.40541033005172    1.51700847890673    0.39126229882428
