    23
        -45.36239609  Gyration_radius:  2.33297908075 Dipole_moment: 2.060
 S          -1.69678397692375   -0.08992320089567   -0.54486527486784
O          -1.23993100889845    0.16584672197326    0.82533359981551
O          -2.30580541874892    1.04759426573029   -1.16869671200132
O          -0.64032615508619   -0.73112714769602   -1.31638526910084
O          -2.84395378567803   -1.18786188066883   -0.41042767593952
H          -3.61688410725523   -0.72688319423563   -0.71934095041611
O           2.46769804081713   -0.10980042893277    1.19498460044498
H           2.63147180750023    0.65744005619115    1.74546932497211
O           0.38659405433438   -2.90156799978000   -0.34203595174876
H           1.24269981484932   -2.99091066321244   -0.76772822405375
H          -0.08964835723875   -2.18209524626667   -0.82866093950488
O           0.40098896461874   -1.43733268111767    1.73591770599156
H           1.29349586132784   -0.90790045625045    1.60347120373435
H          -0.35438493468417   -0.76059250995108    1.41052915080768
H           0.41130540291102   -2.16168977078425    1.00930348182907
O           1.54584378712510    0.81802590479741   -1.01076515053426
H           1.06554635493623    1.64663025096210   -0.76679878247064
H           2.19085246651407    0.24806390751486    0.28703291752627
H           0.83344919426745    0.21482706468311   -1.28722430308018
N          -0.17371984524627    2.73262998142721   -0.23493675367540
H          -0.33881906105905    2.68144150384136    0.76324667075762
H          -0.96643562477655    2.26627309424035   -0.67341104303894
H          -0.20325346432909    3.70891243854350   -0.50401161562375
