    23
        -45.35869146  Gyration_radius:  2.35934954868 Dipole_moment: 4.223
 S          -1.19448600037585    0.05405088151400   -1.57084435012001
O          -1.82373916900513    0.23784253886704   -0.26471086242617
O          -0.42615078798763    1.25808452577774   -1.92808259242869
O          -0.43788423718408   -1.15716113877882   -1.68276767585381
O          -2.36561720630278   -0.00552899335631   -2.62874805486096
H          -2.68299685053574    0.89071780026528   -2.60649483624542
O           2.80371865895277   -0.12946138334413   -0.02059716634491
H           3.29863574243081   -0.28476424767164   -0.82732333263764
O          -0.58592621385739    1.70431306862316    1.48230696284403
H          -1.09578244644614    2.50750125905692    1.60209402453683
H          -1.11491212382948    1.12552344946791    0.86990920154572
O           1.29049537133982    1.83791927184380   -0.24865839672963
H           0.62174652229932    1.61501837646351   -1.03735674661629
H           0.68040217279407    1.84497007804829    0.56375871026376
H           1.95873066643300    1.01257876942476   -0.14222719048847
O           1.25657603596273   -2.13898880317158    0.14722816589331
H           2.21898668802907   -0.96056585835816    0.11133836325188
H           0.64864593514587   -2.02379949896546    0.91586959705752
H           0.68474832738134   -1.96459437841145   -0.62336204350346
N          -0.70508850117558   -1.47624552025853    1.87747196839259
H          -1.26043754402252   -1.07591465024635    1.12434517500069
H          -0.48641622403349   -0.72443809490368    2.51989595467033
H          -1.28324883617046   -2.14705744205837    2.36695511490317
