    23
        -45.36239588  Gyration_radius:  2.33306896353 Dipole_moment: 2.067
 S           1.32806075022752   -0.63332082517866   -1.00982366708549
O           0.10681661213558   -1.35391150674647   -0.63432756687373
O           1.38891159186372   -0.29347010113745   -2.40083969580359
O           1.56479514647508    0.47030351467265   -0.08885164792172
O           2.52087265366153   -1.65839302031431   -0.75219943748710
H           2.87049975815769   -1.80170326694043   -1.62544307564292
O          -2.03326810239321    0.56451930618958    1.75466450579570
H          -2.89463202524311    0.39913843134598    1.36838191137604
O           1.65280458545094   -0.09460579581707    2.43854245577494
H           1.79766483833665    0.13536450964118    1.48599955376655
H           1.47930062535000    0.73471718680555    2.89046885418080
O          -0.73179545034249    1.88278320316489   -0.01846268569098
H          -1.54132573339001    1.16475885924673    1.10137173396980
H           0.17864762257775    1.53833458088219   -0.00495478802965
H          -1.08359731842626    1.57167587898295   -0.88822207842179
O          -0.43720923725967   -1.37929900184488    1.77315312870385
H           0.40701087777118   -0.96395162394100    2.18278567137801
H          -1.16168927654071   -0.62631389928323    1.82371063814102
H          -0.20797516968601   -1.45179976655854    0.73563850009185
N          -1.33011828209976    0.63135311340442   -2.32031563610270
H          -1.80469761947641   -0.24491201091677   -2.13804909695908
H          -0.35643434908209    0.38968516272651   -2.49863049212872
H          -1.71264248818300    1.01904704176428   -3.17459709519530
