    23
        -45.37910983  Gyration_radius:  2.28555474018 Dipole_moment: 4.308
 S          -0.63283313309262   -1.29968806887320    1.28712542960689
O           0.03244975206909   -0.62730497542306    2.37940132156637
O          -1.69141903797114   -0.49481489092148    0.69247751200103
O           0.29404722813683   -1.80276626484639    0.27655445069820
O          -1.32376127120424   -2.58807533352938    1.89913611481130
H          -1.66112688789849   -2.26703941786399    2.72928385347747
O           0.13514478984262    0.98478965837943   -2.31952435267370
H           0.02739275654465    1.27628579713175   -3.22526467804473
O           1.24086853967858    1.61004779419447    1.62604534516847
H           1.75433450254494    0.84221777530217    0.44798819169299
H           0.85984353390490    0.85970714399863    2.13055202254694
O          -1.29700429879185   -1.14605901845312   -1.82009665238837
H          -0.66048872101859   -1.81177395309620   -1.53070182962525
H          -1.69848364311823   -0.86116308733475   -0.97225506857480
H          -0.45078489933716    0.18252031573662   -2.20842021423990
O          -0.90992588375646    2.03302555157326    0.13538561405329
H          -1.34142057576748    1.20080701843277    0.40442092118965
H           0.45628661412328    2.03310952489097    1.20520595201788
H          -0.64355965020135    1.89980246050660   -0.78438137337675
N           1.88469622589766    0.16229734302732   -0.40135046424885
H           1.34574267180219   -0.71091600961312   -0.13653952257611
H           2.86025868646580   -0.04537183422073   -0.58223013986758
H           1.41974271116936    0.57036247100835   -1.23281243322015
