    23
        -45.37910932  Gyration_radius:  2.28576924857 Dipole_moment: 4.320
 S           1.74485861814791   -0.48424386706181   -0.68419394355602
O           1.19530697876402   -0.90578903667837   -1.95232903245990
O           1.57856603162568    0.94309970217344   -0.44571237584635
O           1.25928287037087   -1.27862192165696    0.44130256706124
O           3.30401906756148   -0.76151288732075   -0.75003846527430
H           3.51994596193663   -0.51734522304782   -1.64433460261550
O          -1.54102173825007    0.95060043905002    1.75937371115143
H          -1.97918105998449    1.39603016981869    2.48508231616924
O          -1.41981465630013   -0.49795310228410   -2.12357064524273
H          -1.51809823761565   -1.06266379960724   -0.74063201097272
H          -0.47808163972391   -0.71078445534387   -2.29831870865649
O          -0.94052625140249    1.80956010881687   -0.90984318967952
H           0.01808821461952    1.64642551658704   -0.83562781744511
H          -1.40665354735225    0.46160217311120   -1.89843248010412
H          -1.28599400355946    1.73110361792756   -0.01036538773716
O           1.04673877121093    0.84030737821543    2.12308543846793
H           1.26054975204474   -0.10105891144144    2.11475444075763
H           1.33538508116251    1.12625460608641    1.23085534151049
H          -0.56326790751116    0.96463749638150    1.96715299167787
N          -1.35367745089662   -1.34424744314875    0.30548805061801
H          -1.64512532999913   -0.55822568223817    0.91494854444362
H          -0.30254085278023   -1.44207188344658    0.39932600916417
H          -1.82875867205997   -2.20510300489278    0.55202925856133
