    23
        -45.37890823  Gyration_radius:  2.28827426457 Dipole_moment: 2.676
 S           0.32645335207289   -1.55304470330212   -0.50130294950141
O           1.53360134918679   -1.32729758170784   -1.25825245836684
O           0.37095071533046   -1.03374813055296    0.85388393870779
O          -0.86807161944794   -1.07310958000932   -1.20272713211557
O           0.16596176179935   -3.12509057293436   -0.37986533083603
H           0.71510032602756   -3.42722762078763   -1.09593430056128
O           2.17856292308861    0.80980348339685    1.62472800176141
H           1.65666166239801    0.00952491455254    1.42712559086898
O          -2.94585105317311   -0.63451837167107    0.44073666232664
H          -3.19260301552066   -1.45647088140394    0.86663680105579
H          -2.25420833698955   -0.86524264362549   -0.21209539042210
O          -1.14725662142650    1.07354247448455    1.52046519986362
H          -2.02410851020885    0.68184428098520    1.35210395210117
H          -0.55581274802327    0.29491568705151    1.49602293730223
H           1.64429140851197    1.33056315234424    2.22843080713289
O           2.12826119727914    1.26227177549684   -1.02439354651313
H           2.37664515978339    1.26785195623369   -0.07690512146837
H           2.09681309061939    0.31062453095558   -1.25451447192712
H           0.62318265778322    1.57269642447078   -1.04065459703479
N          -0.45440134304564    1.52385176308239   -0.97850352401246
H          -0.71210823046973    0.55112457264438   -1.27444019020101
H          -0.90843789473498    2.22630235638264   -1.55196624326625
H          -0.75362623075542    1.58083270394385    0.04142138488056
