    23
        -45.37910977  Gyration_radius:  2.28559266918 Dipole_moment: 4.310
 S          -1.38635542026863    0.83816949270287    1.05919837600257
O          -0.70401788401814    0.53607931246749    2.29649853774447
O          -0.64295546563794    1.76743148937524    0.21911681932020
O          -1.78403441492163   -0.35700179170330    0.31960784251880
O          -2.74293786159486    1.55762274186644    1.45177853234035
H          -2.47707243677441    2.12216786072912    2.17054869959599
O           1.07066103624151   -0.65319292889299   -2.18997266449008
H           1.38381727948460   -0.76160753529152   -3.08839059133350
O           1.64189956236654   -0.64070894004988    1.91529391561244
H           0.84845730551231   -0.20381859661104    2.29249282416697
H           0.95498208888689   -1.50336281459650    0.90283591086552
O           1.95365150501478    1.07575174561423   -0.08055505968026
H           1.87225703818679    0.56954384942817   -0.90018423359959
H           1.08277933881679    1.49334450976036    0.05501335510508
H           2.01923441070698    0.03911187433043    1.30939426601447
O          -1.17679483563267    0.68257810808516   -2.11148012227840
H          -1.80285017837957    0.09132355630683   -1.67494864386879
H          -0.95178275255204    1.31209358344638   -1.39438221046693
H           0.22374876633034   -0.12528708916472   -2.24681339485286
N           0.31608338277263   -1.90468299950851    0.10826614120897
H          -0.60351342354930   -1.38799424115602    0.21099170156991
H           0.18840761984377   -2.90729143512959    0.18606313974844
H           0.71633535916926   -1.64026976201246   -0.81037313124185
