    23
        -45.35869108  Gyration_radius:  2.35926349728 Dipole_moment: 4.225
 S          -1.08377962227062    1.61348077894089   -0.34287778005703
O          -0.74825173131547    0.79308083896028   -1.50481010980222
O          -2.09711749097268    0.92774383448252    0.47582805884594
O           0.05660876943030    2.04583093421337    0.40856666044556
O          -1.81525509315676    2.89855524207851   -0.89750597412286
H          -2.63067725975593    2.52666945470294   -1.21574853938754
O           0.74083940011968   -1.02673730883312    2.50540575456935
H           0.59215816035738   -0.53743169570707    3.31679428133092
O          -0.84969843775535   -1.78634525457665   -1.23726045235968
H          -0.78134593941584   -0.80972676257797   -1.41411431053472
H          -1.58514700699974   -2.10529621871695   -1.76343563805368
O           2.16384141547993    0.53936158888891    1.09727499700335
H           1.51107768203856    1.24639020947052    0.93840442248416
H           1.37248452287321   -0.44785804536947    1.94345573482409
H           2.30061235666943    0.14707540312742    0.20224047181631
O          -1.37499670286797   -1.31468610125933    1.21971589235041
H          -1.72440647525283   -0.34265886308362    0.99144840438478
H          -1.12526276400096   -1.68089309662945    0.30548989363878
H          -0.47444639338799   -1.21526396910203    1.78375533672656
N           1.99602586742573   -0.32358006212444   -1.45382705477504
H           1.72491724813795   -1.29234594781246   -1.57105882071360
H           2.66710485912676   -0.09747646971193   -2.17663137942597
H           1.16471465566782    0.24211152084905   -1.61110985927467
