    23
        -45.37910980  Gyration_radius:  2.28561022777 Dipole_moment: 4.310
 S          -0.65095118921668   -1.46472541985394   -1.08529495107079
O          -0.73069286247973   -0.63230508089231   -2.26362975870962
O           0.71567902608745   -1.64200787120623   -0.61324488553613
O          -1.53852263992224   -1.02294965446942   -0.01264561817650
O          -1.18244850874243   -2.89797765966226   -1.50393454393328
H          -0.80976175593269   -3.01110971136155   -2.37246558144362
O           0.86960633401734    0.99001009889723    2.15249989669653
H           1.24989874632111    1.19620478319363    3.00678105420527
O           0.15460948398794    1.83188299019603   -1.84235920773405
H          -0.18532905691275    0.99843868208993   -2.23287201446851
H          -0.62714457178541    1.80911579108623   -0.56593258142674
O           0.24199936241812   -1.54233151372659    1.96726114808392
H           0.63117494130537   -1.72905960102169    1.08698715726615
H           0.67329113824709    0.00986878984070    2.15878922260379
H          -0.70458993713897   -1.55154149983671    1.77790213144100
O           2.08067298202122    0.68469039229950   -0.42786199138742
H           1.03931752797275    1.58168436845345   -1.48686274654657
H           1.90054617450015    0.88161590554311    0.50136412182343
H           1.74059014079970   -0.21770489572880   -0.57336587025101
N          -1.11947561436909    1.53181835869035    0.37287825958941
H          -1.91350951577402    2.12633866774957    0.58176529054896
H          -0.41914182849988    1.54668384569413    1.13665790680536
H          -1.41581836690468    0.52336020402367    0.23758355160291
