    23
        -45.37910934  Gyration_radius:  2.285558038 Dipole_moment: 4.310
 S          -0.44733200557750   -0.34144446909301   -1.85194830503369
O          -1.44418027594731   -1.32313598552190   -1.49085013106352
O          -0.78959356579188    1.00027757427089   -1.39998755785863
O           0.90246415792533   -0.72059941003234   -1.44182444112831
O          -0.40579024997429   -0.29693585290363   -3.43574957600372
H          -1.32526338127764   -0.37440967928685   -3.66938205640455
O           1.25136288371055    1.21780169363947    1.82315860062558
H           1.74483774327332    1.80932132381795    2.39208173829856
O          -1.74871989253533   -1.55841700386951    1.13322356003273
H          -1.83041091591267   -1.62425522526901    0.15766593319891
H          -0.25485218065659   -1.55333590115481    1.22715078556832
O          -1.54317253958632    1.08370225823875    1.19555627705871
H          -1.91911909146761   -0.60569667646799    1.32016104730184
H          -0.68331311172886    1.28887451612439    1.58689801737076
H          -1.41598301906664    1.16202320792421    0.23183709431374
O           1.61601814642771    1.78858616135097   -0.70315495096552
H           0.68172810415857    1.76599898028108   -0.99865645190294
H           1.43232045708089    1.51079339629160    0.88463454889921
H           1.97151877688465    0.97902299301783   -1.09113734995364
N           0.81700219822823   -1.36938391614760    1.09234905376851
H           1.06975678017291   -0.48722413178615    1.57402882469487
H           0.93634803409188   -1.20528717029112    0.05210581857643
H           1.38437296757002   -2.14627664312801    1.41183953059502
