    23
        -45.37910895  Gyration_radius:  2.28582680754 Dipole_moment: 4.327
 S          -1.09281332124172   -1.50016917004376   -0.54941793410754
O          -0.45125178644750   -1.56937777072793   -1.84231708667210
O          -0.18252697971761   -1.80146545370260    0.54709046807492
O          -1.80222328991469   -0.24233392106821   -0.33008128024871
O          -2.21384513950938   -2.62054696434548   -0.53861695962909
H          -1.79404069344294   -3.33741324603019   -1.00322772259950
O           0.78265486649323    1.71637713976308    1.67743656231117
H           1.01794079281331    2.25131844926968    2.43602294939555
O           1.51912468022258    0.18664467154734   -2.10500303262715
H           0.59936725453318    1.19175902753879   -1.48396910350410
H           0.87334156346507   -0.54190284061468   -2.22688024618802
O           2.15323303193312   -0.44791246237162    0.38970531860534
H           1.91538829430831    0.30964033668785    0.94120867074046
H           1.41715844798935   -1.08045469533459    0.48519985370627
H           2.02434602838818   -0.07831570384694   -1.30120847124767
O          -1.06687706790248   -0.03394697037657    2.27479132067475
H          -0.66539531900122   -0.82390417799088    1.85512424135069
H           0.08807503757534    1.06964023180657    1.99136534115247
H          -1.80081372184799    0.16310079328011    1.67956578672166
N          -0.15186858379542    1.71293106955311   -0.88030063298648
H           0.26023163363209    1.94544341673705    0.04181012634379
H          -0.91286371414084    0.99453747906183   -0.71250294269487
H          -0.51634201438461    2.53635077121377   -1.34579522656577
