    23
        -45.37910957  Gyration_radius:  2.28561394984 Dipole_moment: 4.309
 S          -1.63527328057856   -0.60627024627053   -0.83988661514358
O          -1.24386213257055   -1.39001228342271    0.32381003768666
O          -2.33570778305313    0.60693777563038   -0.48590270818293
O          -0.50634129674143   -0.37299196664447   -1.73704457221609
O          -2.65302770273860   -1.49302542045155   -1.67054573513468
H          -3.47304742115571   -1.35620532842994   -1.20700512074025
O           2.39623275111863   -0.30099002441683    0.73486387787721
H           3.26710116499923   -0.59155848179729    1.00719327257638
O          -0.85471519376826    2.25959540298244    0.96627400554404
H          -1.57988548395195    1.81320938840450    0.47880705670405
H           0.25854852043610    1.97931279619368    0.00584949661873
O           1.10577016801515   -2.19085055051543   -0.53183432366199
H           1.96855444654220   -1.07904785710712    0.27550381641695
H           0.24570593925396   -2.12337247287896   -0.06633312158985
H           0.89929105096874   -1.81427662396363   -1.39657988129196
O          -0.01931629437810    0.08472829575575    2.23069742380036
H           0.89658029526037   -0.06262524900728    1.95862087995837
H          -0.61532091598227    1.61597225820147    1.67346829599132
H          -0.55420805875534   -0.51912300610539    1.68262980316219
N           0.96653810867741    1.52324826020900   -0.69532939973153
H           0.39606427812864    0.81019255803794   -1.23322784044180
H           1.68301640673395    1.00199216397978   -0.15779945651552
H           1.38730245352863    2.20516061161360   -1.31622918168224
