    23
        -45.37910944  Gyration_radius:  2.28552931813 Dipole_moment: 4.309
 S          -1.23944148411149   -0.87900105517296   -1.19898107576669
O          -0.63302289942163    0.32333786345208   -1.75420565469188
O          -0.38870000449122   -2.04053463412383   -1.32107529381522
O          -1.71716255388772   -0.66159571285874    0.16424534088404
O          -2.53989380558494   -1.17577022103383   -2.05515140916242
H          -2.18721957540784   -1.61785600532556   -2.82078453463615
O           0.76755685757622    1.95064249456020    1.40633609239888
H           0.95336380266418    2.78832974045525    1.83154686850079
O           1.90021759672085   -1.77721189470104   -0.00779011542377
H           1.15978785995427   -2.08278673218805   -0.57448396816959
H           1.09415042077934   -1.23020285365696    1.12831597364815
O           1.90748764530010    0.71318584675076   -0.91518262915676
H           1.72146825846037    1.28706658020420   -0.15974735101615
H           2.17961432616504   -0.92781404173613   -0.42280984726229
H           1.05734356769253    0.61472929366302   -1.38285845466578
O          -1.46827387289499    2.03638313461038    0.05175925324443
H          -0.08735888004290    2.07199918715917    0.90261445898240
H          -1.15579680354526    1.62265601964145   -0.78015219328976
H          -2.01610037105489    1.33846738040638    0.43270681899635
N           0.35786004158356   -0.71854124806184    1.75854754777581
H           0.62300318853616    0.27985739760416    1.84205620808790
H           0.25784175657948   -1.15646027042329    2.66726016654283
H          -0.54672509157163   -0.75888024922046    1.20783377800712
