    23
        -45.37910957  Gyration_radius:  2.28563555259 Dipole_moment: 4.310
 S          -1.28334414845834   -1.43876794054758   -0.17397075115303
O          -1.35249507417434   -0.73641544479867    1.10025995735323
O          -1.99618894180778   -0.75421104172367   -1.22797536682088
O           0.09374389427119   -1.76626579638526   -0.53480642566153
O          -2.00508473346733   -2.83505137730062    0.03068322677891
H          -2.92506358415076   -2.60742743001943   -0.05795131857968
O           1.98465527779671    1.12484171219245    1.08088269483879
H           2.69473543476038    1.45117878600312    1.63434397772854
O          -1.00904680607031    1.65442531142539   -1.73625786315487
H           0.34738364205288    1.02400661188579   -1.67758658321795
H          -1.54874324414516    0.83550744930429   -1.70798305599680
O           1.10113523180885   -1.19056929819325    1.91699371620968
H           1.22138335881731   -1.78815555305189    1.16823850412634
H           1.69714943154288    0.25175314589329    1.47382027126206
H           0.13907940255634   -1.00561920414551    1.88127065141906
O          -0.77057695331084    1.89588076110134    0.89271278997270
H          -1.05885578815684    2.00133033689199   -0.81490912141629
H          -1.11936171484060    1.00299227664799    1.07219502263757
H           0.17393640640237    1.84929088674739    1.09351222653991
N           1.22558795965508    0.41470067122935   -1.43619761982163
H           0.83395379402772   -0.53180807740475   -1.16415750876664
H           1.68774097910809    0.80929458500335   -0.59668170026406
H           1.86827618576775    0.33908862927415   -2.21643572400944
