    23
        -45.37911005  Gyration_radius:  2.28548388976 Dipole_moment: 4.302
 S           1.05889809816226    1.57820263201678    0.36637417938686
O           0.51564011687166    2.27729183853204   -0.77546892275431
O           0.05369946026001    1.29405685444680    1.38182081478219
O           1.80824850874480    0.37961020624163   -0.00117832293179
O           2.12167726699760    2.54765998748921    1.03149197144637
H           1.69005723669965    3.39449513224313    0.98027474617814
O          -0.82556954208480   -2.32518164904824    0.52697494300672
H          -1.09563746969360   -3.16581786012790    0.89760224239623
O          -1.34090982121538    0.87840865789802   -2.05173048313041
H          -0.72332480964437    1.57344851594704   -1.73832427250063
H          -0.42397612722786   -0.29862150641522   -1.92904785506221
O          -2.19335474174242    0.18862786584077    0.36173190248828
H          -1.49815401842339    0.69264317244123    0.82409295088427
H          -1.91824155578737    0.70739489299058   -1.27132607498994
H          -1.96221931264082   -0.74205571520858    0.48445412592895
O           0.88485490604645   -1.09694475361223    2.07843043860192
H          -0.18930046060577   -1.91811099211516    1.18175531775851
H           1.66880061457645   -0.96648944855957    1.53024625363256
H           0.47786908447013   -0.20506803122500    2.07353897358086
N           0.30313791301185   -1.04816295028730   -1.59722662645931
H          -0.16709574968722   -1.71015738184574   -0.95325524083926
H           1.01303573323626   -0.50567924255611   -1.02724870516063
H           0.74186465966183   -1.52955024507569   -2.37398234622336
