    23
        -45.37910949  Gyration_radius:  2.28546151599 Dipole_moment: 4.305
 S          -1.55036504996819    0.68253611856604   -0.93605219781885
O          -1.87044255419453   -0.26407170372139    0.12374550587788
O          -1.33183448673340    2.02201661833866   -0.44020524091517
O          -0.45886593924990    0.20030246145664   -1.77857722634582
O          -2.81490559813687    0.75082850301427   -1.88916076324831
H          -3.39258920430319    1.34777229601770   -1.42446768072331
O           1.55137491303563   -1.85356188051512    0.72671694717035
H           1.99960501199962   -2.66396168339868    0.97024878079233
O           0.71817988058250    2.17505564509118    1.23519036873883
H          -0.07294885331465    2.35433323869478    0.68318674055398
H           1.47227472909511    1.32175299358234    0.26422446974208
O          -0.52493397227286   -2.32415844955605   -0.79243624110397
H          -0.35632564835049   -1.82693952737583   -1.60282034057858
H           0.76893047168063   -2.12054042473460    0.16456183711473
H          -1.17838504851419   -1.75545896396475   -0.33392663706931
O          -0.17202581378806   -0.11802701816482    2.22270383656348
H          -0.91492343659957   -0.17612547521917    1.59358832445777
H           0.45269450491752   -0.80285348133395    1.94820651307423
H           0.41695862950322    1.47250251514936    1.85761027755291
N           1.78154671218111    0.57753810384167   -0.47852998737673
H           0.94064802945684    0.45970877987307   -1.11260333770581
H           1.93642340434475   -0.32931095576069   -0.00126597786401
H           2.59990929862588    0.87066230012625   -0.99993798089122
