    23
        -45.37910957  Gyration_radius:  2.28556903692 Dipole_moment: 4.309
 S          -1.47235977096164   -0.98717199969649   -0.77672693577202
O          -0.23283048043858   -1.08154664927530   -1.53588599796328
O          -1.51733449080160   -1.90882238252249    0.33516585610090
O          -1.76327589059867    0.39072760870264   -0.38872467519957
O          -2.64574508150196   -1.40124406500074   -1.75855751447279
H          -2.61256658400211   -2.35214463967954   -1.73187537578470
O           1.75627534227283    1.81279074889599   -0.03108606092396
H           2.40381967107736    2.49214435249304   -0.22139702607191
O           0.39417197203520   -1.46046721412598    2.11798439265584
H           0.05755288575427   -0.00718900905990    1.99537667328611
H          -0.35531048496452   -1.82483042776482    1.60005307308239
O           1.97206392153486   -1.04567032742015    0.02873075375717
H           1.26089118128936   -1.19624550226080   -0.62139892203044
H           2.15314969158970   -0.09654223614375   -0.00209776146691
H           1.15377681915128   -1.49700191610080    1.49083396745977
O           0.10359679638616    1.47511939563968   -2.03009608054995
H          -0.77198944787690    1.64325308081988   -1.65948695624809
H           1.17835782908885    1.73680594920705   -0.84324670410199
H           0.12358561275987    0.49622123635546   -2.07738884450446
N          -0.22756582524891    0.99087094399263    1.64394264486172
H           0.59457413010102    1.43802019798858    1.19873584147640
H          -0.61023238365970    1.56579179937362    2.38595602480554
H          -0.94260539300767    0.81713105558602    0.88118960760433
