    23
        -45.37910991  Gyration_radius:  2.28559321742 Dipole_moment: 4.310
 S          -1.20004220407646    1.48047913993033    0.33876879179381
O          -0.02071186227272    1.46933540269272    1.19385882122259
O          -0.94252422793483    2.06127255152349   -0.95897612302619
O          -1.82192725874531    0.16116364476601    0.26097084091447
O          -2.27281627091636    2.40715673085174    1.04752965576973
H          -1.98353997581891    3.28106135201279    0.80537035266486
O           1.21418446111612   -2.10834361712593    0.66999075234928
H           1.65190918225489   -2.84773370590740    1.09266758490433
O           0.87337516642134    0.71484526660036   -2.34572936047386
H           0.22023115893452    1.37159259463741   -2.02203616106151
H           0.16037686765144   -0.53027116724467   -1.91848527486735
O           2.17549882107053    0.49550424287155   -0.04713621358000
H           2.09854517058060   -0.42713573779589    0.23118350025113
H           1.58210492365981    0.73043390805752   -1.66083575971570
H           1.49609426419889    0.97777097057349    0.45975030305544
O          -0.39242866338652   -0.87179409455553    2.32246864678357
H          -1.26208194602273   -0.91747538933097    1.90574385661098
H           0.63549380401572   -1.68557452632622    1.36691120336857
H          -0.12028866572590    0.05089182083105    2.13344613070387
N          -0.39480406011602   -1.30216327497043   -1.37392053733771
H          -0.87576762039081   -1.94188690840362   -1.99600216626081
H          -1.07761445154711   -0.76786675820079   -0.76447470180759
H           0.25673337706445   -1.80126243549365   -0.74106414228117
