    23
        -45.37910979  Gyration_radius:  2.28563475696 Dipole_moment: 4.312
 S           0.93098005051865   -0.43525446321606    1.64029883027517
O           0.14231575640375    0.50324316054129    2.40513690866618
O           0.13634588085383   -1.53189109961132    1.10375333258624
O           1.73440978480406    0.20601481794166    0.60260716744318
O           1.97767718969133   -1.07430247059759    2.64437800577491
H           1.46016400417858   -1.19353851433571    3.43431407899208
O          -0.48083103224663   -0.29867362066171   -2.45945478939797
H          -0.59660373273360   -0.57781087586048   -3.36813333355066
O          -1.73649520189603    1.68720302060006    0.95510392178294
H          -1.15368369815254    1.36853713346978    1.67723438569681
H          -0.69295578229322    1.86969055394376   -0.10265072663325
O           1.31647245550219   -1.74887575136096   -1.23150296168256
H           0.20517945528620   -0.90699541401416   -2.06126797998060
H           1.98508364630099   -1.11876289086269   -0.93489351864602
H           0.82223876162471   -1.93120868346782   -0.40469074758065
O          -2.11579929355053   -0.69765696318373   -0.13841851178662
H          -2.16042240996537    0.86502756372829    0.61458682956342
H          -1.77127528176605   -0.64990669097162   -1.04045338587888
H          -1.41267267042622   -1.12328611806525    0.38657544660198
N           0.15272754582060    1.75797000762886   -0.79037265746901
H           0.88333904834801    1.22353082173603   -0.23929309229856
H           0.50987109605437    2.65119959280183   -1.11001337619594
H          -0.13606557237105    1.15574687381038   -1.58284382628569
