    23
        -45.38134562  Gyration_radius:  2.27255649608 Dipole_moment: 3.506
 S          -1.26526264485087    0.91310231877989    0.80741299315293
O          -0.20346494572672    1.85269418633758    1.13789827414117
O          -1.52106361731877    0.90424203674494   -0.63291179288457
O          -1.04729105359261   -0.40589618799693    1.34930602848578
O          -2.58385145777868    1.46755168145062    1.48468034457126
H          -2.63522815542392    2.35607910959880    1.14761416016242
O          -1.51516899643695   -1.22728222483308   -2.24036243877265
H          -1.66050802899458   -0.45703279090424   -1.65424574651521
O           1.49288625187587    0.18017016587664    2.23155219574234
H           0.94334824980215    0.93550249411417    1.91896329058387
H           0.83838697332314   -0.44290047565660    2.56549599925056
O           0.94545403188171    1.43715150586234   -1.34025142009060
H           1.11564777580552    2.11261143433652   -0.67510313386549
H          -1.23213023313240   -0.86824277053199   -3.08280579642360
H          -0.01391891431755    1.25047593022247   -1.22410432814927
O          -0.10309324401157   -2.33464396399498   -0.23840963860607
H          -0.61681796086519   -2.16918481588863   -1.05401192890648
H           1.18923873845078   -1.50196102097586   -0.29156004211513
H          -0.56499289125187   -1.80331381115567    0.44196919712222
N           1.95887233720900   -0.75053426316740   -0.20317224568307
H           1.66806704881337    0.08145332954150   -0.78269097986038
H           2.87043966704676   -1.10150144198142   -0.47335987257296
H           1.94045106941073   -0.42854042585433    0.80809685149958
