    23
        -45.37905284  Gyration_radius:  2.28429215844 Dipole_moment: 5.327
 S          -1.64527794210597   -0.97318173330119    0.28747554368730
O          -1.76727360891277   -1.29128151094129   -1.11732276438176
O          -0.41761638667582   -1.55766691090050    0.85528530105484
O          -1.75945708487175    0.43323238809407    0.60113312966007
O          -2.84791321682327   -1.70192009226576    1.01692541752163
H          -2.99776830522277   -2.45847124806147    0.45943373382291
O           1.90659124082333    1.45510586047227    0.79967764067821
H           2.56083846796221    1.98981189931747    1.25039608872002
O           0.04240998717375   -0.03693427792682   -2.60289505014988
H           1.04060452892978   -0.51136064175689   -1.58905539883456
H          -0.73343239833311   -0.54062824140500   -2.27716439364647
O           0.12640319293638    0.49859431956048    2.45934032602541
H          -0.69256716591327    0.84168906419218    2.06388786154006
H           0.09803193530635   -0.43341403466141    2.18171316302834
H           1.26098353942635    1.14742341283294    1.49892760510869
O          -0.26672371201434    2.04038982193286   -0.98084532619602
H          -0.10313788105715    0.87567143384961   -2.26102385238653
H          -0.94095974433430    1.59105449985598   -0.43874605954898
H           0.52265750595393    2.08891099964961   -0.42519250561460
N           1.56576925106248   -0.80660717440961   -0.67526433595263
H           0.81781973569915   -1.22596554527458   -0.05038408694392
H           1.91896860576304    0.04493991867667   -0.19984339392593
H           2.31104945522675   -1.46939224753014   -0.85645863327612
