    23
        -45.37905226  Gyration_radius:  2.28429352858 Dipole_moment: 5.341
 S          -0.15484754113515   -0.58499235610311   -1.83616791734725
O          -0.47958087396640    0.74759226838277   -2.29239217094063
O           1.19063530234687   -0.62240121957267   -1.23591438405630
O          -1.14220388179022   -1.18422552799360   -0.96734633880732
O          -0.07471265879708   -1.49478923246966   -3.13033177629633
H           0.21456563168414   -0.87956732588970   -3.79652444780661
O           0.33297486808035   -0.43925123960942    2.46725226169869
H           0.48865942343896   -0.76041511528433    3.35592800796196
O          -0.85334376530365    2.44339149836891   -0.28240371481013
H          -0.82728954899548    1.99886696777515   -1.15620235295848
H           0.43167687595002    1.89986295656862    0.26721455588061
O           0.56391537634596   -2.34707951008285    0.69373086092505
H          -0.30754002449512   -2.30595588528874    0.26598852008948
H           1.12535193824614   -1.91108758811659    0.02900637798136
H           0.42114748237868   -1.22950519732004    1.86047846370726
O          -1.99080425214889    0.43415325172831    1.02588300102915
H          -1.48737336101689    1.90246326679536    0.24330593835894
H          -1.86922988920037   -0.19078772513090    0.28759549621242
H          -1.37000581206387    0.15090043705818    1.71042859594993
N           1.27357156490408    1.26880715189373    0.56906358030443
H           1.02306612891742    0.76899258688158    1.44286987771952
H           2.13244618238365    1.79684633989909    0.67398473499582
H           1.35892083424085    0.53818117751114   -0.19544715979315
