    23
        -45.37905275  Gyration_radius:  2.28429268787 Dipole_moment: 5.333
 S           0.96707738338989   -1.67280108753776    0.06164440277645
O           1.43050702931156   -0.60256545320184    0.96215300692171
O          -0.16450101556460   -2.37129832828421    0.62828891858086
O           0.76434216327504   -1.18547357433461   -1.28407340247409
O           2.15176793315182   -2.72209665671487   -0.00730431839183
H           1.95519368670013   -3.30165204667804    0.72170318607648
O          -0.21239586753977    2.43891322165333   -0.63142149323201
H          -0.13715259030372    3.34918535687327   -0.91930124513174
O          -2.35534968293092   -0.87025563309461    0.68554142440316
H          -1.71052970517472   -1.60886711262719    0.70626372842736
H          -1.47867527257934    0.19029063995868    1.28221838800018
O           2.02158558664148    1.12480981747828   -0.97828623283398
H           2.11520943942224    0.68829386925376   -0.11391218957272
H           1.71343065400005    0.38826541892952   -1.53273669934484
H           0.67169326677982    2.00888978352670   -0.81575000080657
O          -1.57337631159088    0.12514057320929   -1.64690081957810
H          -0.77401760942345   -0.43176225876717   -1.68153295202885
H          -2.34546801883449   -0.56905361176451   -0.25259068208207
H          -1.25659497169661    1.02343275918916   -1.48254722069146
N          -0.65601595634791    0.86356885423341    1.54278388941433
H           0.22354751475879    0.28094396809338    1.43045154121994
H          -0.74058274184541    1.22839342019783    2.48472753122971
H          -0.60969492359873    1.62569808039280    0.84058123912133
