    23
        -45.37905233  Gyration_radius:  2.28425077306 Dipole_moment: 5.345
 S           1.46515461293736   -1.09221247757009    0.63034348773350
O           1.63905597356241   -0.43617982168886   -0.67765771156114
O           1.75800326154630   -0.17710466159298    1.71025911990980
O           0.18327780488794   -1.75278327191736    0.72862321145314
O           2.56810615698253   -2.22739542106454    0.69352089345495
H           3.31767734711045   -1.76609796559469    1.05589680271422
O          -1.96716199861196    0.43991182449022   -1.52609151160149
H          -2.66460877688331    0.46953804045210   -2.18164998630262
O          -0.07009392090432    1.73624119493697    1.93791030657019
H           0.66947351612011    1.10839791504275    2.08217181676597
H           0.08894557508671    1.91015320825289    0.45702918583033
O          -1.87827877111765   -0.09614684809434    1.29288422736338
H          -1.21496357585449   -0.80680539316588    1.21990604498501
H          -0.87339980574672    1.16560276839770    1.94133124303885
H          -2.16200417876796    0.08790305236127    0.38746086046101
O          -0.42512006972820   -1.64753997244375   -1.84686824475294
H           0.45504935931592   -1.23655483371173   -1.79117409046809
H          -0.49847047580907   -2.06313714873585   -0.97133917169239
H          -1.44191877779502   -0.39159083380811   -1.70831547513520
N           0.22894854221932    1.76604043912614   -0.61900435980208
H          -0.67411999812961    1.47704653544495   -1.03999720484832
H           0.89126906623584    0.94160712796165   -0.70320907160766
H           0.60517912333482    2.59110653292508   -1.07203037250322
