    23
        -45.37905261  Gyration_radius:  2.28430224489 Dipole_moment: 5.336
 S          -1.71987766609403   -0.70140559306034    0.53595532718182
O          -1.12078790495468   -1.87595273051751    1.12841337990309
O          -1.26066334542399    0.52355699689267    1.21394823725710
O          -1.56892913666379   -0.60439288754226   -0.89843260098835
O          -3.27436034055436   -0.79784100003419    0.82489618533235
H          -3.30143009759471   -1.28439111128665    1.64244177368636
O           1.45394392858291    1.69624943463440   -1.18399028965217
H           1.86427143143549    2.41854500373104   -1.66049843219021
O           1.48117213697115   -2.04742168173957    0.62163919668060
H           1.54620076919986   -0.61137973212639    1.04918767516923
H           0.55000600535149   -2.22355843320298    0.87408469103798
O           0.94453702129364   -1.06419729295785   -1.78429265543961
H           1.25783174415803   -0.14986524507726   -1.79556059181154
H           1.44489521052871   -1.91686181779513   -0.35436535606972
H          -0.01322447381397   -1.01037189170436   -1.61086964588508
O          -1.13602052014601    2.00562366322774   -0.99702468987217
H          -1.44550122829296    1.17541152756170   -1.39701363698230
H          -1.27626440426756    1.82682351105911   -0.05117739065515
H           0.47138706009242    1.88348561676822   -1.17598380955852
N           1.35356932367959    0.45027212619168    1.23315079247712
H           1.60968530025775    0.99046363997961    0.38541510603642
H           1.83844797252772    0.79278184871721    2.05479394782245
H           0.30111121372225    0.52442604827606    1.34528279652006
