    23
        -45.37905269  Gyration_radius:  2.28430714927 Dipole_moment: 5.334
 S          -0.21505243390106   -1.82297820266503   -0.60665212489771
O          -1.25798135497276   -1.29066706551420    0.28810066097604
O          -0.44058559810488   -1.40145683977643   -1.97079293522841
O           1.11080255613507   -1.54959980947989   -0.10029981921060
O          -0.39399770472953   -3.39679773736717   -0.58919940056343
H          -1.02351933803967   -3.53928525948070   -1.28869881844157
O           0.53537923784413    1.71788368632709    1.77591696872815
H           0.74549874379088    2.24043537930454    2.55044288907070
O          -0.02172317077844    1.19938949618747   -2.31082903103262
H          -0.16588774109697    0.23739668568634   -2.43564063917909
H          -0.87533420124386    1.38260568844550   -1.09141983932415
O           0.37478792860552   -0.83023514844540    2.34116362134556
H          -0.45752242597269   -1.06444099149378    1.89466871801167
H           1.03222996647857   -1.19543258704387    1.72577870903791
H           0.51224613019058    0.76372054392234    2.07512377154896
O           1.98132125414211    0.96424319827652   -0.58598165595627
H           0.86625906905133    1.25607067623291   -1.88754789762084
H           1.69571452976497    1.37370199742404    0.24167764420372
H           1.84199845358743    0.00687182545740   -0.46592665200222
N          -1.37013911262095    1.29048264661490   -0.11944779738438
H          -1.45293343653015    0.24646930207133    0.05021622695259
H          -2.27808355217657    1.74098389512262   -0.10525772887767
H          -0.74347777941474    1.67063862019084    0.61460511984127
