    23
        -45.38134562  Gyration_radius:  2.272489721 Dipole_moment: 3.504
 S           1.14349386625382    1.29433861008211   -0.32181892211864
O           1.34123657338287    0.22448060762221   -1.29965920650446
O          -0.03399772692649    2.08456652419981   -0.65128156778509
O           1.14821323188422    0.82046423769597    1.04072724523731
O           2.38888630189029    2.26007520128333   -0.46824613780070
H           2.29176063747766    2.59525258334250   -1.35370711152033
O           1.59215145247244   -2.38164943192500   -0.77773567910742
H           1.64280809986389   -1.42583334893165   -0.98220957845424
O          -1.41268823568526    1.69144549213103    1.54327129583757
H          -0.65794851236834    1.57894907043293    2.13130825334783
H          -0.99747906883276    1.99048303214171    0.70165104340749
O           0.44494420512336   -1.70376868393216    1.55736225759518
H          -0.95939514486862   -1.28768987400870    1.08623230725896
H           0.89464318302748   -2.17236490201025    0.82620076772870
H           0.84791057263798   -0.81155776711398    1.54730546526219
O          -1.20379279186169   -0.13261433285703   -1.81309040942563
H          -0.22336566522413   -0.09988086685754   -1.73312243278688
H           1.22693348548072   -2.79981521853407   -1.55902953083406
H          -1.44812511038609    0.79820286435683   -1.85190790883332
N          -1.82914904046770   -0.78227642545809    0.69554082352707
H          -1.81925869213768    0.19068197355977    1.11984374489659
H          -2.68752137386699   -1.27899630994321    0.90438144490408
H          -1.69026023671585   -0.65249304508772   -0.34201617386293
