    23
        -45.37905339  Gyration_radius:  2.28451285535 Dipole_moment: 5.303
 S          -0.12372202460160    1.52396723401512   -1.18349128153519
O           0.19618581051406    2.44819129288454   -0.11902173756511
O           0.98762694700287    0.58472327360623   -1.41709979512192
O          -1.38140257596466    0.82988212793020   -1.02531348891868
O          -0.24263564252049    2.38952614528800   -2.50500635678475
H           0.34590459808756    3.11600704806650   -2.32692530131614
O          -0.22380940774093   -2.46894701434616    0.49926144184610
H          -0.33404759564082   -3.41984801432975    0.52680474178846
O           0.27742041467869    1.26529084153432    2.25802094499564
H           1.13454371727641    0.23074852419311    1.59094398306649
H           0.24025401400690    1.90954370607211    1.51952542404942
O          -0.55294941466516   -1.52666419877303   -1.91779761007613
H          -1.26943101364861   -0.88726625518393   -1.77279695232346
H           0.21953648550404   -0.93818782778012   -1.98797580814685
H          -0.38395498580740   -2.19210218411276   -0.44847392075883
O          -1.75626223149278   -0.22777169758626    1.43419388083860
H          -1.80000507215420    0.21028391991198    0.56426928325478
H          -1.41058661305138   -1.11366426856258    1.26154650449294
H          -0.58954081673955    0.79927103396541    2.21387768928174
N           1.59042553278695   -0.48026242640333    0.89489362669451
H           1.03630268075079   -1.35738115991758    0.89830744795190
H           2.56649674205706   -0.65412275977410    1.10592368643590
H           1.47365045135427   -0.04121731070257   -0.06366639215276
