    23
        -45.37905232  Gyration_radius:  2.28427202717 Dipole_moment: 5.345
 S          -1.78415234024590    0.59779610144817    0.44426577756325
O          -1.37541605612847    0.71155575713290   -0.96704417715901
O          -2.21985363947392   -0.74633137155448    0.74890775506752
O          -0.77413341696978    1.12261063473430    1.33501454531479
O          -3.05688477711868    1.52773923092687    0.60069807331065
H          -3.76998272324285    0.93994086634465    0.37270698489891
O           2.40646805724030    0.42731494946477   -0.64611468678510
H           3.27196375563008    0.74613712164357   -0.90385593822425
O          -0.21422649177703   -2.48796117579781    0.73489919211889
H          -1.07343852346101   -2.03142540494180    0.85791946017403
H           0.16396278422321   -1.87207572780331   -0.57916052558560
O           1.28185701893609   -0.57158534987955    1.79877699229338
H           0.54750665117238    0.06926837172666    1.81926781063314
H           0.40565877943108   -1.99490681035536    1.32104945011728
H           1.87994715840882   -0.25880499490893    1.10691308377800
O           0.65933594810212    2.36833695791018   -0.51226243463406
H           0.35391560573927    2.27573587579860    0.40557721540217
H           1.81030434340874    1.22928539438878   -0.60179574598999
H          -0.08526288481904    1.97859896847831   -1.00285633413425
N           0.36022707170713   -1.19324653493921   -1.41501642169660
H           1.27085854648735   -0.72158603887633   -1.25862605290056
H          -0.39286125926837   -0.44894263208810   -1.34873729371938
H           0.33420639201663   -1.66745419884857   -2.31052671985294
