    23
        -45.37905256  Gyration_radius:  2.2842400963 Dipole_moment: 5.337
 S          -1.66265983320070   -0.91237612252578    0.37446510998044
O          -2.34099893156450    0.32689582838290    0.68029646120439
O          -1.19633178591613   -0.92697210111826   -1.02323111572865
O          -0.60322179366726   -1.26392492513922    1.29291389516778
O          -2.75300540428377   -2.05677406951379    0.47760370276779
H          -3.55399778663023   -1.59949003364691    0.24271938037560
O           2.46352159086638    0.01775959922279   -0.56830846404822
H           3.37991545581453   -0.13835188298703   -0.79860225267675
O          -0.67689521333474    2.39590172626997    0.75625219164297
H          -0.15352351224071    1.88073277665485   -0.55122839468634
H          -1.44435297184284    1.79163027027978    0.84443227684207
O           1.08613901335510   -2.20440334976368   -0.51599039902836
H           2.01847330457618   -0.87789719742887   -0.55306934498299
H           0.73402933769721   -2.17670327976499    0.38967592657785
H           0.30328587815869   -1.94921844413129   -1.03410348391443
O           1.10359883007217    0.75882635130436    1.84825208704690
H           0.00236581804338    2.01081931097392    1.35735385026286
H           0.49472255874302   -0.00238019580172    1.83612160505596
H           1.76908779891041    0.56941782459406    1.17332321447730
N           0.18679486080449    1.26262876560785   -1.38804203529125
H           1.16140111385805    0.95742277847322   -1.20609559482190
H           0.10527993449063    1.74103342166042   -2.27798291443795
H          -0.42362825270966    0.39542292840109   -1.35675572179933
