    23
        -45.37905228  Gyration_radius:  2.28430154916 Dipole_moment: 5.343
 S           1.32119642943781   -1.19843082822879    0.74578644925028
O           0.04241506657447   -1.08299558263181    1.46919965359625
O           1.20338594692384   -2.11209027984721   -0.36808070745622
O           1.86157568569569    0.09906762294858    0.40912151602294
O           2.33463888803771   -1.86317686568949    1.76560001886443
H           2.19445634542103   -2.79300394772072    1.61805369004120
O          -1.32325549908805    2.15428127556532    0.00600576088363
H          -1.75326691246504    2.99711607448854    0.15383585653495
O          -0.31335577330092   -1.13924574732311   -2.31961721341687
H           0.31603173506108   -1.66037573094537   -1.77731374059985
H          -1.29735639128834   -0.80784212484696   -1.23744797083826
O           0.73589576677283    1.23579635670974   -1.77099722062924
H           0.11954697589937   -0.25873451306689   -2.41015768538397
H           0.05333741259055    1.75312119182941   -1.32300102169966
H           1.30537414198396    0.88421648476105   -1.06214121248726
O           0.27023631617602    1.52049324594207    1.98026924928750
H           1.11074022636756    1.40436698420307    1.50673015137456
H          -0.72415423719843    1.99980810320953    0.79191493511191
H           0.00842866238165    0.59637165796156    2.13694782775680
N          -1.78971554327627   -0.50835464278025   -0.30690209392843
H          -1.13313993538901   -0.82071935038269    0.46570511212448
H          -2.70721206202365   -0.92695724677890   -0.20462184393147
H          -1.83580325529603    0.52728786262365   -0.26888953047163
