    23
        -45.37905340  Gyration_radius:  2.28452408066 Dipole_moment: 5.297
 S           1.30796219693910   -1.07921225529942   -0.92952655395118
O           0.00619487631566   -1.70728393060336   -0.64130068924021
O           1.23172345150651   -0.25228195943906   -2.11273755316482
O           1.84905649903039   -0.41932725202782    0.23672818162222
O           2.29322237748041   -2.26920566582401   -1.27976009807804
H           2.18145683429889   -2.35656170340389   -2.22092032627436
O          -1.34329975964800    0.61341341444788    2.05295544413740
H          -1.78925649306982    0.70824284512865    2.89515849542565
O          -0.23211701170932    1.93110045763737   -1.72974311970836
H           0.38427868775629    1.25054778742956   -2.07418729602632
H          -1.25277718127872    1.00717946332953   -1.13438529964734
O           0.19339204315452   -1.50182272373642    2.00498768097772
H           1.05400800183259   -1.10370853997733    1.79562989420949
H          -0.76775554448097   -0.20132239477595    2.12693164834526
H          -0.05624114244320   -1.88525937189735    1.14544266225024
O           0.77938266219090    2.01552385522773    0.72219826184857
H           0.19582188288975    2.24431925574559   -0.89928378866339
H           0.07897312317525    1.74421852808093    1.33042267265394
H           1.32899673307306    1.22200058069936    0.58495580638535
N          -1.77636434899725    0.20676981625096   -0.60237791058217
H          -1.83218434175431    0.45200942696504    0.40415855730446
H          -1.14143740402814   -0.63926278089407   -0.68269360878418
H          -2.69303612222477    0.01992315693608   -0.99265306104609
