    23
        -45.37905257  Gyration_radius:  2.28428650779 Dipole_moment: 5.334
 S          -0.40371088499387    1.89053451286537    0.02161178314790
O           0.05200385995100    1.32036074929024   -1.25867235083587
O          -1.81348643818690    1.64348719642080    0.22391056068609
O           0.44552413168096    1.48321953775499    1.11783307859740
O          -0.24042772372298    3.45955038899641   -0.12267541285902
H          -1.07381600630435    3.71825612471225   -0.50254496411814
O           1.61795253077130   -1.94078999210258   -0.07979299098368
H           2.34568400955206   -2.56112719149296   -0.13148047000049
O          -2.34005003787860   -0.92024988433086    0.67630761552939
H          -1.47582669275359   -1.19271455872434   -0.51873212745028
H          -2.37844149688626    0.05655492659202    0.59755810461293
O          -0.06829618334140   -1.00453475594661    2.04525384784745
H           0.57177576717205   -1.48958803466106    1.50741598315887
H           0.12512639252444   -0.06096659447566    1.89467118332510
H          -1.67542466740994   -1.07788840500950    1.38648129602770
O           2.42959243008584    0.52945514886985   -0.35756240162432
H           2.10111858827202    0.92429795060376    0.46725801786359
H           2.01572537673610   -1.02811738839525   -0.17616909788419
H           1.78112282850867    0.86280170380580   -1.00214624651190
N          -0.69935692449156   -1.18481485087095   -1.29013515467119
H          -0.43037829156398   -0.16448538920777   -1.40054916189874
H          -1.02271106579537   -1.57922075273639   -2.16615073539591
H           0.13630049805939   -1.68402045196518   -0.93169036656267
