    23
        -45.38134567  Gyration_radius:  2.27246690084 Dipole_moment: 3.512
 S          -0.06407472273788    1.70022409459999    0.44024072236989
O           0.20587498707538    1.23107882998440    1.79173201938659
O           1.08992992374417    1.47063679972414   -0.42900506029459
O          -1.29416866193132    1.18227493368357   -0.10708158713562
O          -0.23783881591348    3.27039631869419    0.53496886248177
H           0.56554252157497    3.54544177918875    0.96477645790811
O           1.10070802681101    0.15648852689064   -2.75302105318945
H           1.09666197792347    0.75819333097803   -1.98112282453150
O          -1.71844346473773   -0.53647074132831    1.99946209817307
H          -2.34017738807866   -0.09596120164616    1.41001439513232
H          -1.00022965067949    0.12933960086116    2.10479703145770
O           1.90736387288858   -0.70134194736873    0.78831996139194
H           1.77763758589108   -0.38863508562140    1.68995186440667
H           1.98068324249157   -0.22189979695261   -2.78818493241730
H           1.72807451313498    0.10198272483144    0.24855929554753
O          -1.20614852959814   -0.86335495491681   -1.82186511196911
H          -1.41905942611851   -0.04787146196510   -1.32365243493257
H          -0.43975527378968   -0.60829991949456   -2.37331379118006
H          -0.70060400413989   -1.69374418581575   -0.62946190076770
N          -0.34195785741941   -2.05413752070431    0.32240970976619
H          -0.95713942150314   -1.60064596651429    1.05914523171659
H           0.62835767189391   -1.66800217813647    0.47067940739772
H          -0.36123712686203   -3.06569196892869    0.38165163913655
