    23
        -45.37905226  Gyration_radius:  2.28425705762 Dipole_moment: 5.345
 S          -0.58095310327186   -1.06959229238812   -1.50206600439942
O          -0.90764769690845   -2.19084616935272   -0.65032605644298
O          -1.40316876811193    0.10565479147637   -1.16376670093756
O           0.82513042437229   -0.73894218601841   -1.55345339859727
O          -1.00516214386830   -1.48400610958754   -2.97088864116128
H          -1.73713444523716   -2.07215730520294   -2.81530439863798
O           1.02552305359441    2.08368058046430    0.99920807405647
H           1.41198917987205    2.93061854075824    1.22392900329282
O          -0.12094533063444   -1.81769655328009    1.85899664753235
H          -0.77233517962635   -0.47177940211366    1.74552928573796
H          -0.43272422430917   -2.19307489429330    1.00823444853976
O           2.02159932835492   -0.60535372407803    0.86798011868465
H           1.91267584033806    0.34194910124411    1.02609433860342
H           0.81112487096119   -1.55429450122801    1.67792373228932
H           1.74641717539718   -0.74981099714438   -0.05601122981078
O           0.53048662784661    1.89360671312763   -1.56143544515773
H          -0.37910202627155    1.54814016993268   -1.54738848904356
H           0.88763418848867    2.08865333225110    0.00854188331914
H           1.03589767878282    1.09435593476182   -1.78553521305991
N          -1.14868071692609    0.49960011730779    1.40944829801740
H          -1.37657209696715    0.36669587156937    0.38184772080012
H          -0.38109279751153    1.19520237017323    1.46499840422459
H          -1.96295983835872    0.79939660161669    1.93344358214865
