    23
        -45.37905340  Gyration_radius:  2.28449252408 Dipole_moment: 5.304
 S           0.04625351119184   -0.88325004400634    1.71968022968318
O          -1.17598120627251   -1.05211348694611    0.91366283615689
O           1.08085841333551   -1.79495641294948    1.28599164435003
O           0.45024299188104    0.50260032739349    1.78828126057050
O          -0.34389190350044   -1.31892772514301    3.19188800610827
H          -0.15514969932124   -2.25177905391854    3.18567121197772
O          -0.81778566545693    1.81142265764990   -1.56368573888676
H          -1.23200985097986    2.53513035016413   -2.03462767532146
O           2.04406282827922   -1.16940648922667   -1.10920491039739
H           0.61022036357371   -1.06665567519160   -1.53679684192212
H           1.89404736551050   -1.54259650152689   -0.21473937930086
O          -1.80376606200697    1.53286532700947    0.84214708940231
H          -1.23595345167513    1.78782997351324   -0.65533656735960
H          -1.94927097980447    0.57044434281928    0.86618719189614
H          -1.00258347726400    1.61996729751830    1.38407194030507
O           1.77156623668937    1.37421550739200   -0.40333085215062
H           2.22451668621793   -0.21500342428599   -0.94355999824428
H           1.01694643870347    1.72821581754090   -0.89255508757378
H           1.42887631613000    1.15207852692556    0.48198613711461
N          -0.46759503602716   -0.88659430422859   -1.59903335508108
H          -0.62951500419308    0.11394064969487   -1.82080555955562
H          -0.83190198603473   -1.05135895751392   -0.61649359884614
H          -0.92218683897390   -1.49606871267845   -2.26939798291490
