    23
        -45.37905271  Gyration_radius:  2.28430581059 Dipole_moment: 5.334
 S           1.37845536827813    1.06821098653888   -0.83426307201190
O           0.58028526820887    1.27631004503718   -2.02132583167064
O           0.71913147712831    1.64221672005392    0.35183083934002
O           1.78032824169298   -0.30196899477325   -0.60900496868585
O           2.70785923709259    1.90548197909048   -1.03681350302997
H           2.41732548424938    2.61998588139633   -1.59437405381189
O          -0.87067493997222   -1.46913551749311    1.86466427191328
H          -1.05830730262373   -1.99093059970103    2.64542372606276
O          -1.64137732193926   -0.17990436118706   -2.01066802787879
H          -0.87714976137724    0.38346864750093   -2.25650040354758
H          -1.83792865982306    0.33082173185026   -0.61422347086638
O          -0.22135296978530   -2.10341514219654   -0.85873940287510
H           0.60126735330370   -1.58048919972758   -0.87036261856989
H          -0.49124353158077   -2.14154398558572    0.06858371178722
H          -1.23786674443043   -1.05397364794170   -1.80065374039323
O           1.46272024403477   -0.29885574214011    2.01915036061041
H           1.23313732006718    0.60882894139200    1.75524479831834
H           0.03939480412365   -1.07607358783727    1.99807550666252
H           1.88488256945522   -0.63294435201756    1.20971823924691
N          -1.71032963364386    0.67619379335489    0.41648797242474
H          -0.77668487434254    1.18006944216282    0.42506047317034
H          -1.61874802846695   -0.14876902802639    1.03873405029737
H          -2.46312358965610    1.28641597024662    0.71395513350643
