    23
        -45.37905239  Gyration_radius:  2.28427521543 Dipole_moment: 5.340
 S          -1.43663631290013   -1.02565266606959   -0.78812253212371
O          -0.92983335531576    0.11701618368676   -1.56825405809790
O          -0.59110535882354   -2.18524929612148   -0.96080345910475
O          -1.68850831951207   -0.66104366251359    0.58782673039672
O          -2.83900800973955   -1.39515770225043   -1.42522325684971
H          -2.59814627491870   -2.01162237706433   -2.10920009843591
O           0.91263374428690    2.06804695203267    1.13236791949499
H           1.10851372777354    2.91373238812880    1.53687576971308
O           1.78114370405079   -1.88717808992461    0.19662092421800
H           0.97391585873706   -2.23778478679551   -0.23614229844527
H           1.82261456376276   -0.55301308510670   -0.48696232457733
O          -1.54779505155224    1.96141463657330    0.25316877278199
H          -0.04447731406038    2.10621709343875    0.84429897260970
H          -1.40986153394510    1.60335938736622   -0.64073083964202
H          -1.87369407390792    1.17685667063874    0.72572201770443
O           0.52409508007965   -0.59103352700586    2.14146219090909
H           0.73465220353994    0.34707980776584    2.04199257361638
H          -0.35188259125321   -0.70747728808329    1.72991246415525
H           1.47031116174108   -1.59627011827112    1.08527823470015
N           1.58721257794212    0.42143600828081   -0.92641417716309
H           1.55255351635334    1.13153579681380   -0.17100333729295
H           0.60203041983145    0.32161948271433   -1.30741728790006
H           2.24127162783644    0.68316818176894   -1.65525290066890
