    23
        -45.35968407  Gyration_radius:  2.36413089835 Dipole_moment: 1.689
 S          -0.82028063317579   -1.82809566474110    0.33926794058910
O          -0.53739296542347   -1.80092235235185    1.75897741563465
O          -1.74155348065547   -0.74232908206313   -0.03454452901269
O           0.34512017095089   -1.84743010291483   -0.51258339179765
O          -1.61209909975946   -3.17166209801140    0.06410687776443
H          -2.18219982434733   -3.22946239472314    0.82459072379383
O           1.35189226126182    1.46153989680158    1.19977490292332
H           1.59842353816441    1.90487045809001    2.01344542803077
O          -1.22167831388221    2.10870771708899   -1.73514319704051
H          -1.93519549391025    1.55597292020794   -2.06262854816794
H          -0.36650378133078    1.58059799021643   -1.89251862912210
O           1.94237508015788   -1.04477482531152    1.48053682962134
H           1.11026404362363   -1.35924568955035    1.89140850507001
H           1.87272637534247   -1.42338504496814    0.59185725118229
H           1.63376323155088    0.50271798853994    1.31172707588657
O          -1.16114452674416    1.53254291545995    0.70225376500223
H          -1.22814107786520    1.93573953278309   -0.26707862320598
H          -1.44349882384762    0.52552654731677    0.50150185969506
H          -0.16343620424735    1.52078234906613    0.92960338098301
N           0.92110326471951    0.62272192735578   -1.81688124372411
H           1.41957833566463    0.46439207843190   -2.68324242161119
H           0.64254989351669   -0.29106437944109   -1.45113806772665
H           1.57532802021996    1.02225930286587   -1.15329329502639
