    23
        -45.38134560  Gyration_radius:  2.27240398776 Dipole_moment: 3.502
 S          -1.71935617580855   -0.25269868197240    0.26221212793366
O          -1.00209442394624   -0.50216523241244    1.51257559639217
O          -1.83999540848470    1.17640579559255    0.01191065777061
O          -1.17360081725805   -0.98236143507718   -0.85614384224798
O          -3.18927312519989   -0.79674776587974    0.48229572500201
H          -3.51848222695267   -0.23688374593169    1.17787610667725
O           1.16777999458330   -2.02586384000841    1.82545490147139
H           0.29922127740033   -1.57898847578199    1.76330804190941
O          -0.58380945466535    1.29409725404733   -2.28573663629968
H          -1.13594647168262    1.40480987302173   -1.47750210792364
H          -0.80597686481083    0.40477954043960   -2.58200769411720
O           1.40007061954806   -1.69602493810752   -0.83275902046145
H           1.50155500596047   -1.98427271429603    0.09623348211391
H           0.43062593051663   -1.63634156708231   -0.95558831252426
H           1.69890461947271   -0.18907921271360   -0.91442026740961
O           0.53106089098441    1.61779716470728    1.35993388340189
H           1.63003280636474   -1.60484313729878    2.55194053833100
H          -0.14885483955829    2.23487425304311    1.06917899317366
H           0.01796223145076    0.80097852318829    1.55562178317737
N           1.66144595214385    0.88911330040630   -0.94180668308405
H           1.37321015418380    1.22820252284702    0.01449961717714
H           0.86494256453277    1.13920280779832   -1.59743285296161
H           2.54057778128003    1.29600970169175   -1.23964405752016
