    23
        -45.35968409  Gyration_radius:  2.36412103979 Dipole_moment: 1.689
 S          -0.64399738522991    1.64724503741896   -1.00079073642177
O          -0.26208178067493    0.48004812201097   -1.81267623941145
O          -2.00639941947311    1.52417112109945   -0.52640391135413
O           0.33474072480227    1.91895276487913    0.02508630582354
O          -0.62308821703699    2.88113463161854   -1.99323873119638
H          -1.44864511808016    2.78122977447008   -2.45709706575934
O          -0.85112717872556   -1.35794289555814    1.68369374879823
H          -1.57251456473680   -1.83726445131052    2.09506872917207
O           1.80524828415397   -2.08625157835243   -1.15690276545757
H           1.97810345629288   -1.61442157861889   -1.97506296633816
H           2.00327002545652   -1.42627604210402   -0.40843376255706
O          -0.65683749818504   -1.74634075295482   -0.84203603835224
H          -0.60884188434577   -0.77663310499261   -1.27961128972053
H           0.33711914592599   -2.05917510477999   -0.98638531256356
H          -0.76149401966117   -1.61121378133399    0.16694325038158
O          -1.34473614563345    1.16856429073422    1.97045579963820
H          -1.88672427833103    1.31686600774243    1.16772424463245
H          -1.03756589541366   -0.38364858209591    1.84898363897563
H          -0.52052098938346    1.61731654632381    1.73121372532849
N           1.97454709556128   -0.30258633657764    0.73947790164427
H           2.87093107886460    0.01001350957864    1.09005720184537
H           1.44552107886669   -0.66475678411616    1.52494071844996
H           1.47509349419109    0.52096918726795    0.39499355294013
