    23
        -45.35968399  Gyration_radius:  2.36405730896 Dipole_moment: 1.690
 S          -1.54899747083588    0.80053188473935    1.04344560985093
O          -1.87360345263733    0.13900068782042   -0.23109163431465
O          -1.45294806657631   -0.16529885660515    2.11789766759376
O          -0.40823881482818    1.67492090368965    0.90817370384937
O          -2.79501092726674    1.71993485387731    1.37508742949015
H          -3.42324059470899    1.09267491921325    1.71945709132749
O           1.68929971267030   -1.53229481496600    0.44969189152670
H           2.00071842921342   -2.35282107171866    0.83590143695960
O          -0.00104478981375   -0.44441998502191   -2.95844250698890
H          -0.83651269577206    0.00104916864379   -3.11790348930217
H           0.56308111875693    0.20832094358397   -2.41924138388707
O          -0.48006659413085   -1.77813267449501   -0.89251915861714
H          -1.13481839159582   -1.02419378398641   -0.52229505468461
H          -0.25468171356163   -1.37349484572699   -1.83709307887391
H           0.38458644152556   -1.71267928035800   -0.34907795878503
O           1.12780847160407    0.07169822544948    2.40451431302845
H           0.19810474439744   -0.19279740765895    2.56514238527415
H           1.52444971325619   -0.90927622971668    1.22166964665480
H           1.01197574756677    0.94147272570766    1.99466815351413
N           1.30668007790863    1.07754356700880   -1.29117807200556
H           0.62718123317241    1.36707455194608   -0.58349519810481
H           1.79100251110111    1.90857817173826   -1.60570674236611
H           1.98427530087501    0.48260835668987   -0.82760502131379
