    23
        -45.35968399  Gyration_radius:  2.36406226253 Dipole_moment: 1.690
 S          -0.76131632533422   -1.82963668444592   -0.44927542930382
O          -1.32104778475634   -2.02985286900318    0.87099883227325
O          -1.37836382531294   -0.66865716142897   -1.11171157440746
O           0.67986928283447   -1.75789115627228   -0.49422304485851
O          -1.18527045807873   -3.08743075611836   -1.31301901459430
H          -2.07866650333458   -3.24099814407267   -1.02151195669676
O           0.36583103261614    1.21337348962746    1.94874463664561
H           0.09007966392113    1.51773146044565    2.81518835975994
O          -0.16769671378214    2.39040010841497   -1.79116243654160
H           0.65898385793498    1.86393359705319   -1.51837790491284
H          -0.54374761057139    1.91898461662703   -2.53829628466260
O           0.84320712711890   -1.32505367247273    2.14293077934363
H           0.59264813419481    0.23973659060719    2.05779210066176
H          -0.05660253985925   -1.67013257526605    1.96575286996720
H           1.30388118516063   -1.56058763768594    1.32427322295244
O          -1.44222224648405    1.44457182711873    0.14725485006667
H          -0.98111131895860    1.99412647546183   -0.62220943883340
H          -1.50498985410002    0.49058848202863   -0.32190866390187
H          -0.74189955925496    1.36442190672293    0.88916077753628
N           1.73899683196898    0.86274987981031   -0.87607777087083
H           2.64402753990320    0.82273533351868   -1.32711384216110
H           1.35791177449349   -0.08648318077647   -0.86689278783460
H           1.88749830901242    1.13337006993440    0.08968372722326
