    23
        -45.35968398  Gyration_radius:  2.36405587467 Dipole_moment: 1.690
 S          -1.69687398417941   -1.07500210678612   -0.30654993917409
O          -1.70594203476808   -1.62762244267408    1.03174425697465
O          -1.83216621863344    0.39057031861093   -0.27141758158246
O          -0.57924589429629   -1.48190162297651   -1.12479315626747
O          -3.00630268147143   -1.60618764424758   -1.02144200418828
H          -3.65133560156667   -1.55966526396747   -0.32252380955918
O           1.66990236606020    0.04176221532522    1.61663052360566
H           1.95752109767602    0.01190436626727    2.53084130887534
O           0.39378019998855    2.83120864040775   -0.88272107748920
H          -0.42935153423119    2.88964858363272   -1.37358696446117
H           0.86106596507678    1.99401568005009   -1.22300898240673
O           0.80692715421755   -2.32290621979221    1.00592172742872
H           1.38587553736580   -0.89499281092333    1.38617651607331
H          -0.12595623447924   -2.23022491250244    1.29097727200235
H           0.71449261409572   -2.31887263542976    0.04189969049059
O          -0.29955364561361    1.62858891800297    1.20279423664800
H           0.03089686413710    2.26645977216643    0.43423625776458
H          -1.02216182424550    1.05745311625609    0.66817254703910
H           0.48548839468442    1.00265432727613    1.40070503000422
N           1.42323116404628    0.51445230422756   -1.49849472215269
H           2.05604360257131    0.27010319808959   -0.74495337130773
H           1.91471669512566    0.37191965163159   -2.37155821423986
H           0.64894799805802   -0.15336545262556   -1.46904954379264
