    23
        -45.35968399  Gyration_radius:  2.36405568999 Dipole_moment: 1.691
 S          -1.65103350621605   -0.92307921924515   -0.74222311961317
O          -0.54325375070041   -0.67978805594464   -1.68088255042026
O          -1.43161853940626   -2.13876993450229    0.01306403777123
O          -1.93205625899235    0.24643057231472    0.05618109343372
O          -2.92608270873812   -1.17893501042970   -1.64590169965905
H          -2.79994307070303   -2.08127441691812   -1.92265041683593
O           1.47458702551600   -0.39234036683182    1.75366991265512
H           2.01048990426950   -0.98203172003972    2.28701995345705
O           1.93120593137934    1.59170957464738   -1.63929650867529
H           1.29418457501776    1.92243573918991   -0.91832766799407
H           1.41549701033621    1.55644495116222   -2.44840494925268
O           1.74148168223922   -0.75022986395982   -0.76991518244150
H           0.75250112157533   -0.84364882692618   -1.15374349879197
H           1.99258243536489    0.19911827275920   -1.14726623406697
H           1.65629070679190   -0.63260412721541    0.24311089697363
O          -1.00561989052267   -0.92247386127938    2.27973088863408
H           0.52023698866541   -0.58037772332468    2.00894856161134
H          -1.50973527920795   -0.19301474628038    1.89030328415306
H          -1.15816426931554   -1.63539781804238    1.62505563575770
N           0.22467188321484    2.10096390773272    0.26727775083777
H          -0.12137355360429    3.03829581557062    0.42782654925165
H           0.64940841539513    1.77726329036223    1.12913609828553
H          -0.58425683782187    1.50130356152930    0.08728716525379
