    23
        -45.35968401  Gyration_radius:  2.36405982028 Dipole_moment: 1.691
 S           1.69616662445841   -1.01389076423774   -0.47346572835232
O           0.90592090023285   -0.47489249682157   -1.59258064579536
O           2.57260480298078   -0.00083990148804    0.07617131778361
O           0.85562370789511   -1.67996751016668    0.49297870854655
O           2.63227768187797   -2.12216074323255   -1.10850075974200
H           3.32287556619829   -1.60037505657682   -1.50540372274206
O          -0.52491320406592    1.82226993422538    1.34450799674267
H          -0.34017022481309    2.70050005011810    1.68213318469418
O          -2.35234726417696    0.30985934855139   -1.82219635697643
H          -2.02054135015161   -0.28136838421227   -2.50210051718844
H          -2.29490525152140   -0.21035501713562   -0.94979028324229
O          -0.31321076833298    1.62653955463973   -1.20206253313249
H          -1.23499538070175    1.22740708153568   -1.51473083179473
H          -0.38848341914546    1.73695674730241   -0.18747971507806
H           0.31773928760324    0.78617413455977   -1.37485940614611
O           1.26930222709963    0.23057457683554    2.32259818890737
H           0.94680664190447   -0.66289618934328    2.13389502503892
H           1.96390546380027    0.33478615552991    1.63937910823458
H           0.15094192875788    1.21394157825015    1.77397792763620
N          -1.88366456682401   -0.88665002286214    0.44827341152941
H          -2.47969388148055   -1.63276222132979    0.78320481957508
H          -1.86732215289934   -0.16285134279598    1.15808593764995
H          -0.93391735877892   -1.25999951117009    0.37796486382521
