    23
        -45.35968400  Gyration_radius:  2.36406988081 Dipole_moment: 1.691
 S          -1.73235924273574    0.83928940409874    0.65096728998918
O          -1.83166811380759   -0.47724267121805   -0.00041503892483
O          -1.38921094775897    0.69941408569468    2.05068404736411
O          -0.88211329557634    1.73484727012013   -0.09686141117976
O          -3.19348313223361    1.44824106764969    0.60472483683116
H          -3.62588282696505    0.99081967004198    1.31923400888579
O           2.04377912746924   -0.54851687623900    0.96226832193305
H           2.56661275211030   -0.90588446331065    1.68223556531117
O           0.18319184778921   -2.00816987511823   -2.20994994266187
H          -0.74064058797063   -1.94896801039169   -2.46465539062992
H           0.52942138151548   -1.05162401727157   -2.19708053488833
O           0.05891119614836   -2.02480060719842    0.29216224090041
H           0.17973169928437   -2.17806736465815   -0.74159941455847
H           0.85902550308199   -1.45743703990818    0.58395178922049
H          -0.78912754993515   -1.38066313400696    0.28348394109018
O           1.01372146784726    1.67822081411999    1.79292042968409
H           0.66537399391447    2.10923477117468    0.99870338028495
H           0.19337701758869    1.33149452550679    2.20149876147262
H           1.69450412990178    0.33647699363929    1.28797257175483
N           0.97484913100397    0.44991417547984   -1.83916937526184
H           1.78340086177903    0.40396678168754   -1.22914807737465
H           0.22735060795852    0.90915833678420   -1.31315280784662
H           1.21123495969469    1.05029615332401   -2.61877522136130
