    23
        -45.35968408  Gyration_radius:  2.36411472407 Dipole_moment: 1.689
 S          -1.38386421438712   -1.48187784182611   -0.13652753828138
O          -0.77448781242613   -2.28178559366225    0.90517349114919
O          -1.84233866142580   -0.18750519370696    0.39428510331463
O          -0.57718076234369   -1.30994538554298   -1.32137877610466
O          -2.69626536788739   -2.24796711419534   -0.58215881042972
H          -3.03364915991696   -2.57031767846999    0.24787343755118
O           2.08061344905164    0.24079707516629    1.00810540981791
H           2.67881061587572    0.11137082480019    1.74620026215411
O          -0.64020410244993    2.92222502163387   -0.02282407128043
H          -1.57373884351060    2.81004059517805   -0.21725556909872
H          -0.14296248190279    2.38050189719093   -0.72586981386051
O           1.64539488740845   -2.08500701755488   -0.04561313569344
H           1.21075505112741   -1.90334712711348   -0.89179915035661
H           1.96442908149528   -0.66418873935761    0.58522281259651
H           0.88673504609231   -2.36978956486123    0.50525457897789
O          -0.22184590908769    1.13890257986377    1.68634509663274
H          -0.35485524216896    1.99968347465793    1.09640795866434
H          -0.93065635366940    0.49062805442228    1.22652096559515
H           0.70631604281393    0.77980334394135    1.44799408753920
N           0.61628579692745    1.26558998851494   -1.59863567541622
H           1.51796595114522    1.08727171931120   -1.17065975903019
H           0.77629773229571    1.48482000531700   -2.57355215655640
H           0.08844524668032    0.39009666610711   -1.56310875901935
