    23
        -45.35968399  Gyration_radius:  2.36405854526 Dipole_moment: 1.691
 S          -0.90326100114578   -1.65268201767807   -0.76277737147406
O          -0.18702420696670   -2.56480914221111    0.10413889622868
O          -1.74478036201766   -0.73347571905837    0.02101724393093
O          -0.07817262000002   -0.93697871811285   -1.70680207227739
O          -1.91025448390724   -2.53407539121675   -1.60950386069003
H          -2.21567723607326   -3.16636812835930   -0.96634785105948
O           1.84056295056612    0.40813468989888    1.35999405333037
H           2.38674759458925    0.20413884761332    2.12123892478191
O          -1.41916731913814    2.54473447051716    0.67848951159910
H          -2.26545625802218    2.27866029978606    0.31125977864180
H          -0.73424797691020    2.38138843405096   -0.05584602363053
O           2.15576912389564   -1.51342405690957   -0.34811943120467
H           1.46126868638043   -2.12617006052312   -0.02823032222135
H           1.76164255990376   -1.18929779682084   -1.17122658901835
H           2.01520345816507   -0.32259846644053    0.69154972261491
O          -0.66913416547194    0.47531843728124    1.87483781104073
H          -1.12966651395402   -0.14873371513645    1.14501344109961
H           0.33877638402882    0.44013254286905    1.70133337570533
H          -0.98499319161010    1.41817593382203    1.53129305112260
N           0.37419445873375    1.80522921416647   -1.06602138101256
H           0.54883362230353    2.34614295444036   -1.90329949143872
H           0.10821338742606    0.86204650163236   -1.35931012461380
H           1.25062311920510    1.72451088647776   -0.56268129149424
