    23
        -45.35968400  Gyration_radius:  2.36406794093 Dipole_moment: 1.691
 S          -1.27180814497725   -1.58027626744114    0.11996353169031
O          -0.47059939543749   -2.27643116539936    1.10482640483488
O          -1.75394418480977   -0.29351459810241    0.64836549740775
O          -0.64429904020530   -1.41871971640598   -1.17012294690832
O          -2.56897345672374   -2.45968988078921   -0.10769101369608
H          -2.76896860355059   -2.75719368018051    0.77447664938909
O           2.17137503226258    0.44115788958235    0.70308947399823
H           2.87011563403264    0.39478778369630    1.35809135905874
O          -0.85989936334154    2.86464979316441   -0.06732453848387
H          -1.79959463132885    2.67707813219920   -0.12776390912359
H          -0.42021626763109    2.32093152778921   -0.80629801619771
O           1.78021815273824   -1.96451510108718   -0.17388977790672
H           1.12480119425797   -2.27028968062749    0.48720954164879
H           1.22535447065703   -1.86128634018203   -0.96089060275204
H           2.07000478326190   -0.49174996060276    0.34156149390927
O          -0.08314952369988    1.21156655093097    1.64739034009305
H          -0.79479937448041    0.49111404741258    1.31777151170636
H           0.83009112104280    0.90588060739860    1.30129958071672
H          -0.35885505698064    2.02726821184193    1.04291540188005
N           0.29977608013707    1.21530089269049   -1.72296541380450
H          -0.14981300274607    0.30824104475352   -1.57644341377618
H           1.26120410564108    1.12447533648510   -1.41409874817465
H           0.31197948173716    1.39121457288636   -2.71947240575943
