    23
        -45.35968397  Gyration_radius:  2.36404410941 Dipole_moment: 1.691
 S          -1.00069839796120   -1.19172583240978   -1.30664335769282
O          -1.21972855758355   -1.44181173485531    0.12755653500706
O          -1.85344471616828   -0.12219814810416   -1.78144575470760
O           0.40231246897342   -1.02872397005261   -1.60525214632080
O          -1.47708826249181   -2.50873470089549   -2.04579887549293
H          -2.42403687931190   -2.40860017328646   -2.04725663036601
O           0.18436101588629    2.29032029675973    0.35222453420050
H          -0.20008971557929    3.16675721569587    0.41113662708396
O           0.69396719016463   -0.77156665607358    2.80589711469312
H           0.39648048771030   -1.68111885216954    2.72737340374972
H           1.32236867701549   -0.61629770259794    2.02100386834786
O           0.09203550597724    1.57716051778889   -2.13620830262640
H          -0.80100782587425    1.17427006573518   -2.15316880657252
H           0.18355354384630    2.05396477181417   -0.62524063906634
H           0.65754495454621    0.79335470273680   -2.19736657106585
O          -1.12194108230684    0.49869052445456    1.63743371328946
H          -0.40911484769471    0.05408025564600    2.27065835246804
H          -0.62340666007222    1.23673075393623    1.13343598418426
H          -1.27457307162643   -0.29746430476138    0.94676434116627
N           2.02068721772640   -0.26806311737336    0.61671572534929
H           1.46397711209676   -0.66195711407220   -0.14569830425535
H           2.97342041431577   -0.58619347024605    0.49341190684405
H           2.01442142824546    0.73912666206275    0.50046726164496
