    23
        -45.35968399  Gyration_radius:  2.36405636982 Dipole_moment: 1.691
 S          -1.56111466827704    1.27365841701447   -0.26414523346391
O          -1.75346581576027   -0.11842952356223   -0.70291509407209
O          -1.81812565284854    1.40922935754697    1.15433281774323
O          -0.28830339772624    1.79405393567616   -0.70383549339484
O          -2.68078574068909    2.11231429312288   -1.00633535972743
H          -3.45397363121928    1.92501000123477   -0.48306865638405
O           1.30969466121665   -0.67077866126015    1.79961357251021
H           1.40945304045860   -0.93697120250500    2.71535470608425
O           0.46010594605153   -2.47359877190209   -1.61860277107647
H          -0.24949052076734   -2.30753602431258   -2.24369436234267
H           1.01602077120632   -1.62181407497745   -1.59704303328895
O          -0.59300003654502   -1.87292075574292    0.57375196888747
H          -0.13855366280519   -2.28662071919232   -0.28009708636130
H           0.15856369334332   -1.40965129645702    1.09121653873168
H          -1.17275276184114   -1.10455815952567    0.11801833080277
O           0.67242508415762    1.83984432255140    1.79489471137714
H          -0.30137487880247    1.75691878447809    1.86524058655241
H           1.11151738415134    0.31493111818999    1.81901627006927
H           0.77484462138691    2.12657554721617    0.87555121618488
N           1.67486886053796   -0.18660300234452   -1.30197298536543
H           2.15232571974151   -0.23438044935701   -0.40880873518159
H           0.93502185365275    0.51377849704210   -1.21006114525534
H           2.33609912151006    0.15754835700084   -1.98641076272471
