    23
        -45.35968404  Gyration_radius:  2.36417557731 Dipole_moment: 1.689
 S          -0.35087780564874   -1.21411942202582   -1.59158172216094
O           0.88566817382787   -1.45414601250797   -0.82957019279656
O          -1.47953098383120   -1.87165990943235   -0.96698564955988
O          -0.53942026513917    0.19148383844250   -1.86166300062223
O          -0.13364540898684   -1.92485585179503   -2.98997846881600
H          -0.29650181362485   -2.83910144597149   -2.77943187780897
O          -1.15976196394742    0.58805527556674    1.92672401512425
H          -1.70819909282203    0.36431605099751    2.68074177411144
O           2.71270514512424    0.58905517371063    1.11521708065789
H           3.19782943952490    0.13558621691021    0.42173246988345
H           2.07559185200605    1.22357550565543    0.63927276343737
O           0.82835208896912   -0.99310238255297    1.58684135032073
H           0.02485862441182   -0.38046695648645    1.74880988635446
H           0.78593448876183   -1.29397078390744    0.56613947809000
H           1.66785025061190   -0.35995740364194    1.55408505172663
O          -2.62767118586687    0.33758829441491   -0.19265603555665
H          -2.12009993854359    0.75488250690202   -0.90412910062007
H          -2.47773840363088   -0.61268311123579   -0.37868399218014
H          -1.76058272711424    0.53195152271162    1.12224809828405
N           0.84794829578483    1.95174572883123   -0.09791977223164
H           0.12080253504212    2.12065579699513    0.58817505191439
H           0.45548198767473    1.32326303370627   -0.80315667188995
H           1.05100669745567    2.83190433469561   -0.55423053565832
