    23
        -45.37890695  Gyration_radius:  2.28831993183 Dipole_moment: 2.631
 S          -0.20151555525117    1.32879142782105   -0.98375363594222
O          -0.97286895518254    0.97726415027189    0.19553193971458
O           1.01856718028692    2.04297745668721   -0.69616610416971
O           0.02701033421455    0.15025496177757   -1.82453287530649
O          -1.10078186234995    2.31510662647106   -1.83867353990848
H          -0.45739062498649    2.95278294012501   -2.13011583192805
O           0.10772581529699    0.95658896438025    2.66354140479739
H          -0.34898013247558    1.15044777368898    1.82341132988548
O          -1.94342587174834   -1.66644902815686   -1.65233968249666
H          -2.76347649922937   -1.27608799019949   -1.95740134528301
H          -1.24687455674196   -1.00073419502686   -1.82383675879080
O          -1.16540105074108   -1.59158653726289    0.93792809106120
H          -1.24929492617581   -0.62396831407999    0.82125559272637
H          -1.61135225351003   -1.94215988801011    0.14502735874220
H          -0.34360819553391    0.19735437415202    3.03913335627104
O           2.32027548969710    0.64926863927920    1.16864589935853
H           1.81008904170533   -0.64159635339817    0.50917469821252
H           2.03478485451616    1.29697274126774    0.49143374037854
H           1.70963657431629    0.80690977764921    1.91818896350333
N           1.26041746744655   -1.37711404243767   -0.06042900187538
H           1.82552481741921   -2.18453187924925   -0.29949851563942
H           0.91496859193319   -0.87509410091245   -0.91408948133050
H           0.37597032709893   -1.64539750486074    0.46756438805008
