    23
        -45.37184416  Gyration_radius:  2.26820012431 Dipole_moment: 3.129
 S           0.99847145467627   -1.07103539942679    1.00887987964247
O           1.70444999309817   -0.46845239912074   -0.11916252865041
O           0.86536817821545   -0.15550187794625    2.12363028869538
O          -0.25524963678016   -1.66739486359767    0.58622714102863
O           1.90763842295404   -2.25677440991996    1.53548946863256
H           2.35017061925954   -1.86206450354201    2.28003432836054
O          -0.68430389207406    2.18205158406660   -0.53822732398517
H           0.11331812245282    2.39794367254224    0.00400794451492
O           1.51777211297942    2.13614786435082    0.93627637211888
H           1.27960097470500    1.37401972012955    1.50224410644639
H           2.19293322253804    1.79369857611233    0.34410461101691
O           0.26132717672950    0.40868520754564   -2.00393881439316
H           0.92202152994802    0.02331323106208   -1.32972984174972
H          -0.52282890647987   -0.32318009554288   -2.05908283691217
H          -0.16399075389064    1.23923419927609   -1.47672258246226
O          -1.74098988261065    0.45257574203138    1.19421075785073
H          -1.36988665385184    0.72142319538967    2.03931813804434
H          -1.24765391356138    1.64079763035671    0.06287970236598
H          -1.29627335657672   -0.39409120404222    0.99517687084635
N          -1.54870453657038   -1.35462599859055   -1.86454164783613
H          -2.47637701217280   -0.98249591228146   -1.70536329980328
H          -1.19924691519167   -1.72768400131711   -0.97772253707464
H          -1.60756635778517   -2.10658997754772   -2.53798820667605
