    23
        -45.37184396  Gyration_radius:  2.26818591136 Dipole_moment: 3.125
 S          -1.06441445477675   -0.29341103595260   -1.39392022157586
O          -2.02836628290129    0.64906498719242   -0.86374140660806
O           0.20694686998204    0.34521684960037   -1.72547650595330
O          -0.86337259902442   -1.46115557829948   -0.55624511410026
O          -1.68141168169256   -0.81622121453550   -2.75622329364777
H          -2.30417347212309   -0.13115007685680   -2.97739963698365
O           0.80667335064734    1.49111192253720    1.62608902158264
H           0.38417646568526    2.14182235058073    1.01372493264663
O          -0.43814170260332    2.72415289961758   -0.36255255956613
H          -1.13736759338516    2.05587103654492   -0.51236222354836
H           0.15493427467925    2.62321123868777   -1.11213550369824
O           2.05831198723242    0.10589302152273   -0.01747782381231
H           1.92211147352014   -0.89805374006678    0.33777727775923
H           1.39798875000864    0.19453946840178   -0.78967064960432
H           1.63017449834526    0.73367467764712    0.73860203556592
O          -1.26945569901245   -0.17807044361051    1.73737988371190
H           0.07661791836163    0.87378937392542    1.86611618646688
H          -2.02236304922676    0.38022530619662    1.52370117984673
H          -1.16450265514431   -0.75011342168487    0.95255178838363
N           1.47026089756999   -2.22826909094765    0.76527105486477
H           0.57375539478913   -2.23202469850923    0.27145646024645
H           1.28297325008286   -2.29595082162837    1.75759554287781
H           2.00864404898171   -3.03415300035306    0.47693956512975
