    23
        -45.37184549  Gyration_radius:  2.26820308401 Dipole_moment: 3.132
 S           0.28133180453468   -0.06533235703394   -1.75449663345189
O           1.49556325792061   -0.10182997874011   -0.94358597448293
O          -0.37503060510609   -1.35526969465312   -1.81834954534533
O          -0.59297429241595    1.01741186879514   -1.34233986601328
O           0.73268157706599    0.25732544304786   -3.23850332977206
H           0.70949759016141   -0.59993794119795   -3.65148769614822
O          -0.20824084262764   -1.14696772118579    2.04017763144187
H           0.19812526446051   -1.86603548087493    1.49729872318183
O           0.89704357780927   -2.63047224204910    0.14204710161770
H           1.76679254784797   -2.24232785178941    0.01300440013621
H           0.36676595610366   -2.29707132873882   -0.60997896046206
O          -2.08513590951154   -0.48470054013373    0.26608757173500
H          -1.02472535415104   -0.90118877504159    1.54559361895163
H          -1.63811653410789    0.13620119512131   -0.34135748770854
H          -2.19835824756484   -1.28460896117438   -0.25499282226971
O           1.28562344801489    0.74633677639965    1.43146593005139
H           1.48111877434366    0.45288227666052    0.47475957731864
H           0.61455066884456    1.57801816718748    1.32441619587373
H           0.68377095367025   -0.05547752474814    1.81080632083361
N          -0.40535589352678    2.57094420399784    0.96616957006347
H          -0.13648417691031    3.54517280832736    0.93429370052513
H          -1.26348403604886    2.48380913478243    1.49569734242190
H          -0.58495954881150    2.24311850300678    0.01327463150611
