    23
        -45.36026742  Gyration_radius:  2.31950655712 Dipole_moment: 3.846
 S          -1.01122552439976    0.98818637188333   -0.81549495526933
O          -1.74598818416711    2.13408671603030   -0.32148543796387
O           0.41827669876976    1.15431095436740   -0.84727812046231
O          -1.37734331483411   -0.24330294526854   -0.09548398861756
O          -1.49439565824354    0.76495235015539   -2.30999092078770
H          -2.38849815501744    1.09186854887080   -2.29344103585594
O           2.36117339128310    0.11527008094431    0.93272939607748
H           2.28556057188688    1.00732449484809    0.57314725961417
O          -0.62914531026805    2.35927034662369    2.01669900193223
H          -1.30729504110843    2.67199638023065    2.61935574052011
H          -1.02928107567748    2.38885318430274    1.11110951083782
O           1.93389487392856   -1.05329869889609   -1.30737211330296
H           2.33097885738420   -0.47173355697933    0.10498349012301
H           1.28770629443923   -1.78946092691941   -1.19934416424271
H           1.39307986599610   -0.26575384167251   -1.48705588148201
O           0.10210584706614   -0.09149488088113    1.92092434506521
H          -0.12683234115266    0.87365853983264    2.13554816800740
H          -0.50940269380188   -0.28358263665898    1.11242953634178
H           1.14133443265034   -0.05911826868358    1.52379787276218
N          -0.15337021665127   -2.73875576529197   -0.89541075528952
H          -0.16827631254255   -3.39407394050768   -0.12428526418065
H          -0.55234843520455   -3.20128504552322   -1.70215049690724
H          -0.76070857035795   -1.95791746078613   -0.65193118688384
