    23
        -45.37890766  Gyration_radius:  2.28821451405 Dipole_moment: 2.643
 S           0.78644264266345    1.18883499832499   -0.85962995916827
O           0.13776722586646    1.05025562440377   -2.14069680389532
O          -0.13124832114838    1.35989196931106    0.25280176608294
O           1.72981691427084    0.09952365199513   -0.59172801125776
O           1.65230666797227    2.51386944260394   -0.94239666688760
H           1.71058998343135    2.64308327278869   -1.88326680040240
O          -2.74176019391278    0.71782254330825    0.07470738199711
H          -1.86237595612126    1.13975528639413    0.09891821512654
O           2.26898123256601   -0.20165092306853    2.02182805357152
H           2.67575983902094    0.59865790928863    2.35627500130237
H           2.18142008166655   -0.07670817276899    1.05518176752257
O          -1.72521475713233   -0.83924230055705   -1.86612538076035
H          -0.78185963592921   -1.58391048497136   -0.90827165873585
H          -2.34174064395891   -0.34990281391194   -1.28304781748336
H          -1.11065899552525   -0.14950602699592   -2.19188364266298
O          -0.40734953561691   -0.59814909690824    2.06286928975964
H          -2.89307026374377    0.37350593629087    0.95771821285179
H           0.50779663080250   -0.61911070285761    2.39832452538233
H          -0.42775126626057    0.23235200964611    1.54641250061679
N          -0.00103318421067   -1.85642244993366   -0.21292948326891
H           0.81926256918620   -1.24953766839605   -0.45585915430028
H           0.23181072337741   -2.84242410625469   -0.25756450042535
H          -0.27789175726030   -1.55098786777986    0.76836317508345
