    23
        -45.36026748  Gyration_radius:  2.31947395231 Dipole_moment: 3.820
 S          -0.83207580999361    0.24835890790424    1.37657962133891
O          -0.95238905092140   -0.96376708719108    0.60946983476785
O          -0.39666136697618    0.06107321664715    2.74493929466085
O           0.00497267991719    1.23234153922557    0.66974968074368
O          -2.27573840802279    0.90119696956666    1.45878412329684
H          -2.24222877744206    1.38333337406340    2.27917942039812
O           0.80298544291528   -1.99077913474587   -1.36694940986389
H           0.37958041638478   -2.45877993639050   -0.63733378792029
O           1.85194821640008   -1.16552139583548    2.29096406778282
H           0.96968362723240   -0.78879469024775    2.53719206656935
H           2.46220469470037   -0.88825754464053    2.97771540916264
O          -1.31461611458046   -0.73237807264802   -2.07169190921390
H           0.02601814781145   -1.52682358948650   -1.82747123517133
H          -1.52684975693925   -0.78675217010616   -1.12450703294042
H          -1.12037937352756    0.21958615943090   -2.23638041119663
O           1.92083348356069   -0.19873877701141   -0.07809587024335
H           1.16468553326738    0.47126353878449    0.13061124937876
H           2.06621350655681   -0.64198311454300    0.82316330185345
H           1.46839296581118   -0.98924938816367   -0.71804174814650
N          -0.68299082459952    1.90701679264748   -2.05655914508257
H          -0.46091268857425    1.86753967456017   -1.06305430244428
H          -1.44002205361505    2.56738645787475   -2.17810772337337
H           0.12734549063811    2.27272829020057   -2.54015549433729
