    23
        -45.36388349  Gyration_radius:  2.31820744269 Dipole_moment: 2.597
 S          -0.32373355039060    0.14099305213679   -1.61212333436285
O           0.27994976425274    1.16496776099171   -0.77479564867010
O           0.44065828638073   -0.28204004534678   -2.74340024303052
O          -0.84777423089359   -0.96134088968977   -0.80157134280504
O          -1.63875586864332    0.86466176094296   -2.20530559805437
H          -1.69241751275802    0.52506580873353   -3.09317565409268
O           0.29879186400187   -0.19274333670471    2.81374493263838
H           0.36152272725356    0.58301468902868    3.37449416989530
O          -1.79953569364078    2.15675027930058    0.40565044990914
H          -0.94047623327911    1.95959581384797   -0.04363799792344
H          -2.43611348745497    2.25457251316442   -0.30673662640549
O           2.06055596183331    0.16746630114251    0.98970651079065
H           1.05018829290869   -0.10932641143174    2.13497069909150
H           2.20821251568903   -0.65991938609989    0.47348765668085
H           1.55241934571926    0.72225592020424    0.37307866774368
O          -1.75041017752628   -0.19793802325593    1.36948597274903
H          -0.92323579682844   -0.23374743622898    2.02715579100931
H          -1.88888909317561    0.78499445583536    1.12014776686768
H          -1.39933620451177   -0.61621879162475    0.46367298921077
N           1.94412816413128   -1.85773923083210   -0.78215163140465
H           2.67117733905303   -2.47725008765112   -1.12006503702000
H           1.61379549802755   -1.30641582136629   -1.56994891107363
H           1.15927808983813   -2.42965890510348   -0.49268358173678
