    23
        -45.37055011  Gyration_radius:  2.32610257036 Dipole_moment: 2.929
 S          -0.30186772516057   -1.79790073800237   -0.83385299345382
O          -0.23958649519994   -0.48044982413754   -1.46436424737786
O           0.84850065056219   -2.63075288452008   -1.08903555435426
O          -0.66771181446899   -1.69665076461331    0.56312457943212
O          -1.53497912342225   -2.51064344668120   -1.56941477448601
H          -1.35928690054101   -3.43665705209059   -1.43384806039212
O           1.40621549861815    1.15065421716449    1.56614225598985
H           2.07548945565763    1.29371153785189    2.23707141133373
O           0.63204385479642    2.22098651425164   -0.87924535063213
H           0.65084682664042    1.36612215315045   -1.33212164631440
H           1.01352618378863    2.05085644859641   -0.00244328461079
O           2.34606011743992   -0.79388875993827    0.02248054692402
H           1.80463493627024   -1.54895786099223   -0.29244039033911
H           2.79256366034714   -0.45925474285184   -0.75870845902825
H           1.70023453045144    0.35976534628838    1.05405370257766
O          -1.19460179641267    0.40606478834579    2.04470635544465
H          -1.69256481419643    1.00329375949774    0.71872443467550
H          -1.07050008846081   -0.49716176623774    1.67639973265256
H          -0.28667018299184    0.75684029313488    2.09476045431547
N          -1.77228697031818    1.27238189595736   -0.32548173890010
H          -1.35356934168601    0.44790373422568   -0.85298376308710
H          -1.08148988492102    2.02944786006600   -0.52193789026515
H          -2.71500057679245    1.49428928153533   -0.62158532010515
