    23
        -45.37055022  Gyration_radius:  2.32606021447 Dipole_moment: 2.929
 S          -1.83472367935601   -0.70174839189433    0.39749457009382
O          -2.63512482612902   -0.00298855653198    1.37388931525420
O          -1.38023442510316    0.13305437621345   -0.71319637106748
O          -0.74471738996260   -1.47116774169487    0.95915174095609
O          -2.81549445270797   -1.75941197261999   -0.30206309112027
H          -3.36320262963609   -2.05394606393086    0.41906828117208
O           1.87709132253298    1.08362784927414    1.02526544074123
H           2.43785504110112    1.45824087197063    1.70624191713891
O           0.88262898974452    1.77735405314926   -1.47454000852049
H          -0.03664204523011    1.60114713424241   -1.22953042805877
H           1.38336569107071    1.70358328047583   -0.64552608388130
O           1.79592609118543   -1.56642790186112    0.30407568928858
H           0.90121100158717   -1.70791139497885    0.68680483166023
H           1.26907407160267   -1.24794858963978   -1.10439771521960
H           2.04445883980575   -0.68245136638802    0.63058812735464
O          -0.61244287541651    1.60739774747953    1.78397108675623
H          -0.96020513467180    2.40496374679190    1.37825702580795
H          -1.34357283330483    0.95477361791692    1.74008196323137
H           0.95099741262765    1.18123585223719    1.35240045532351
N           0.70454048071654   -0.82153343997508   -1.92210622018541
H          -0.26018446080062   -0.62703408527942   -1.51630119979895
H           0.67569118236165   -1.40480224968968   -2.74951372616836
H           1.06370461798244    0.14199322473211   -2.10011560075825
