    23
        -45.36388387  Gyration_radius:  2.31820110219 Dipole_moment: 2.608
 S           0.48264553996134   -1.26244308482696   -0.94714517228094
O           1.31745988379551   -0.54908495020856    0.00570473556265
O           0.34972428774605   -2.67058371393044   -0.74151925053713
O          -0.79124313492347   -0.56889457324033   -1.15525713737113
O           1.26974852120449   -1.08545232041828   -2.34489063114738
H           1.12345038324317   -1.91732986469096   -2.78445802357401
O          -0.80207459816290    2.32515515543018    1.41287721082687
H          -0.16903975200724    2.96418831197819    1.74605956543750
O           1.94759745037548    1.56948738434710   -1.34191214639854
H           1.88624434136959    0.77412981262722   -0.75690486551391
H           2.17938447143812    1.22440882962345   -2.20765531745092
O           0.01893086805256    0.06292825923227    2.29001600139997
H           0.67749443515072   -0.15288404152626    1.60743732627325
H          -0.54244520290047    1.43290583288360    1.82361372067027
H          -0.66682845569822   -0.63489729534775    2.16519620152503
O          -0.55942791109527    1.88968028240913   -1.04408375300065
H          -0.71092111313050    2.12365330975176   -0.02418822579701
H           0.44887143477589    1.93929336427772   -1.21310167827193
H          -0.75384449751158    0.85273211102101   -1.11975474703403
N          -1.56341858583901   -1.89941583549056    1.34081466286248
H          -2.06390004555368   -2.63340171709453    1.82801065961523
H          -0.86350172197164   -2.33964337647916    0.74917718867591
H          -2.21490662830721   -1.44453188037476    0.71196365550929
