    23
        -45.36388385  Gyration_radius:  2.31822448438 Dipole_moment: 2.607
 S          -1.21555870300695   -0.98201843211059   -0.53305687182856
O          -2.62989027653482   -0.87064434329931   -0.35931751054984
O          -0.57701832039127    0.07280102787013   -1.30328926057757
O          -0.48308371547810   -1.24636241695679    0.70818387059151
O          -0.97634213689758   -2.30210301647372   -1.43006082926878
H          -1.77828490930313   -2.79973407988510   -1.30437761440901
O           2.25386390458184    1.48497705979498    0.86914029545920
H           2.85943045259174    1.90274186482262    0.25361680677757
O           1.60226270688208   -1.09447420502608   -2.07119861431822
H           0.77571532230394   -0.56434272763338   -1.95143352506516
H           1.30348783040319   -1.95936105474168   -2.36274014551057
O           1.95896472986693   -0.96832889520667    0.44539730126077
H           1.99687438758838   -1.05712734322118   -0.57359672912592
H           2.13519332111163    0.04949554164403    0.67103050422803
H           0.93255332857186   -1.12146097696112    0.65050072934234
O          -0.07182571060965    2.28584606967382    0.15479868978755
H           1.33409102103619    1.86040919307247    0.65592721737171
H          -0.26169952309481    1.64324416279630   -0.55034971955812
H          -0.74540178721551    2.06723921756963    0.84135102468225
N          -1.93710164397950    1.10165281149428    1.69542206894537
H          -1.43188566828919    0.45495433830094    2.28994485907974
H          -2.35644030427040    0.53809466753751    0.96034495032805
H          -2.68790428584562    1.50450153693382    2.24376253237699
