    23
        -45.36388378  Gyration_radius:  2.31813095376 Dipole_moment: 2.610
 S          -1.30264569506329   -0.10894137945363   -1.00887316863576
O          -0.00845730674234    0.45847886413566   -1.35079368908382
O          -1.75009347742466   -1.19709939049606   -1.82044699459485
O          -1.40539861278728   -0.35964782154876    0.43117288430986
O          -2.33058163218518    1.10531396636428   -1.27984560476861
H          -3.10307400136609    0.66501957679268   -1.62040014483231
O           2.11550162262924    0.39596313907601    1.84594630792826
H           2.79446839669711    1.06025063557224    1.71238798257614
O          -0.18049799998537    2.81605703212456   -0.29583034050016
H          -1.05617752564088    3.11443809168112   -0.55361511920198
H          -0.01608556118235    2.00508265151074   -0.83806630865778
O           2.06236144724608   -0.94338063265769   -0.33718223093215
H           2.14099626107147   -0.20001002056106    1.02364538422075
H           1.53506534457074   -1.76990415636439   -0.23009531877205
H           1.47588286342649   -0.37707606756904   -0.86774214226848
O          -0.20796905770348    1.33541345104444    1.77379820137476
H          -0.75525888759007    0.57286799751575    1.28551943674994
H           0.77043208232378    0.94831956240042    1.87576303856101
H          -0.16385706804828    2.06839061761047    1.06074265554337
N           0.10576821245736   -2.79021929740533   -0.20459549105158
H           0.13497447476717   -3.79177963331783   -0.35500185356767
H          -0.48893317568570   -2.38481818038268   -0.92272163989086
H          -0.36642068377918   -2.62271898608483    0.67623418551851
