    23
        -45.37890825  Gyration_radius:  2.28801473879 Dipole_moment: 2.668
 S           0.52604676020583    1.04631696285205   -1.18283855642490
O           0.92129299676115   -0.33702589570323   -0.98649542363261
O          -0.69210125384209    1.20866469809379   -1.93838728759717
O           0.48744391915038    1.76221741215815    0.09580283908370
O           1.67284732578063    1.72921829426970   -2.03748955577551
H           1.16869724983005    2.29799544464035   -2.60997928182561
O          -0.80378929331156   -2.38222495180916   -1.30819417228734
H          -0.12276214091403   -1.68775006298766   -1.38388860702156
O           2.25335140701336    0.81006784538341    1.88101010388363
H           3.14034841311738    0.91036565306648    1.53295112935154
H           1.66048018269741    1.25512864212575    1.24210192493448
O           0.78523231766575   -1.42344953813627    1.46061988057122
H           1.41889118009015   -0.83941689083823    1.91654779018859
H          -0.50922588716685   -2.96445266550029   -0.60434760124646
H           0.94060781794025   -1.21431886777439    0.51774087316726
O          -2.52252908918596   -0.37483965205042   -0.81720004376400
H          -2.13883222167895   -1.23987940480509   -1.07021576721276
H          -1.90694908141190   -0.05574574138776    0.55428198472028
H          -2.03135919191367    0.27087898639053   -1.36616178821860
N          -1.25414421381121    0.23778173125699    1.36372485206694
H          -0.56492550014430   -0.54772604157936    1.56562969505218
H          -1.76622850821722    0.52235594975255    2.19150319366634
H          -0.66239318859182    1.01583810254021    0.98328382834746
