    23
        -45.36388371  Gyration_radius:  2.31804218433 Dipole_moment: 2.609
 S          -0.79024632795242    0.63472752823937    1.30257067515697
O          -1.73801209585048    1.70229228152364    1.37366988516354
O          -1.19957393364518   -0.53932671345156    0.54907331354282
O           0.55925145009507    1.06138176024946    0.92342633047154
O          -0.62727163658325    0.07842758343309    2.80887044657492
H          -0.92973858464823    0.80566402168088    3.34385366721443
O           1.52936516843754   -1.19763329311745   -2.06515490868676
H           1.43636939080249   -2.12309935277235   -2.29957379500914
O           0.35346388704851   -2.35831336167876    1.53914030886407
H           0.30803012619141   -2.20194045936152    2.48560202281306
H          -0.37047521921499   -1.80568964076341    1.15289950602170
O          -0.85458684750431   -0.26092134438956   -2.11274727180714
H           0.60472278406695   -0.78894748186228   -2.16457662200174
H          -1.15087323131623   -0.51199252834682   -1.22096646197153
H          -0.84636756332365    0.72461049323081   -2.07426263850565
O           2.03026458791943   -0.84550127620647    0.36615097193930
H           1.88990627261288   -0.99312109694755   -0.67122145362378
H           1.48152974750211    0.02916271354286    0.59571439560377
H           1.49534895070808   -1.57526701891179    0.84471137486110
N          -0.81594992758994    2.31901819066030   -1.33940334954746
H          -1.18126299917066    3.14757083942027   -1.79403864856593
H           0.14334182637526    2.50884791048021   -1.07365919125788
H          -1.32723580494270    2.19005024530447   -0.47007855723037
