    23
        -45.37055013  Gyration_radius:  2.32600726722 Dipole_moment: 2.931
 S          -1.73753053030820   -0.71779962452347   -0.69583337156274
O          -2.87564288152804    0.16847546684462   -0.73125041063761
O          -0.57351873117521   -0.22796747293186   -1.43227233125805
O          -1.37156776171639   -1.16706381949735    0.63071073801406
O          -2.17329283205092   -2.02940054931422   -1.50811760277998
H          -3.08639368772811   -2.14041137961692   -1.26184454138670
O           0.91005659666117    1.52204169208284    1.61453167395348
H           0.94743299412254    2.13889615458330    2.34707087071004
O           1.84361889326622    1.31240693347244   -0.99508415460742
H           0.96686372299308    1.13214318895508   -1.36243769530168
H           1.68479284126302    1.54709190231194   -0.06612983917632
O           0.96046771718516   -1.21580552094275    1.83567135052231
H           1.50322203542180   -1.39941647291871    0.40965288718383
H           1.05655880599406   -0.25459394749588    1.96499690911445
H           0.01913867898579   -1.31739081693903    1.56988261237788
O          -1.38991394658633    2.01387975956652    0.38272066266993
H          -1.28826275139018    2.60785320958446   -0.36461539346704
H          -2.00292271700968    1.31283258297808    0.07438825597817
H           0.01285475732869    1.62705879440275    1.21699525857027
N           1.65405200582236   -1.30256751962967   -0.65677513791716
H           0.68905598696212   -1.08586279895183   -1.05079183940095
H           2.08393673187696   -2.11278840546849   -1.08617655516474
H           2.16699409161069   -0.41161137655142   -0.83529235643482
