    23
        -45.37055022  Gyration_radius:  2.32601046362 Dipole_moment: 2.930
 S           0.45923976365337   -1.95090973229911    0.01564885739439
O           1.14699838397096   -0.83982990438534   -0.63973942793203
O           1.15152713886910   -2.47895400995237    1.16630784007622
O          -0.93636276520082   -1.64393067017191    0.24736345111734
O           0.48463696481322   -3.11383596306838   -1.08741519741398
H           0.37137083033497   -3.90418944801616   -0.56861276148742
O          -0.64586164913032    1.80589086164084    1.43952407713997
H          -0.91834011274607    2.27065147002532    2.23217568417210
O           1.23990909291062    2.05670672462229   -0.58623618297089
H           0.62781211656954    2.19464949358424    0.15514717904508
H           1.58415871982329    1.16064474656506   -0.46474291188467
O           0.99976683342331   -0.10729256106185    2.26461177515296
H           0.97015082124365   -1.03048127791430    1.93418268580032
H           1.92246541597389    0.15193194459551    2.20896939431911
H          -0.11949069205331    1.02990656287229    1.74756551641342
O          -2.32662219094774    0.51293239219333   -0.30734889917749
H          -1.92525783576280    1.09803470040219    0.36079439411479
H          -1.33832613343667    0.64284713451636   -1.47742259478780
H          -2.01316075287983   -0.38158204776310   -0.04539223936704
N          -0.43130569088752    0.64097600112463   -2.06606087253067
H           0.16468543705718   -0.13543915937437   -1.64730447557148
H           0.11917037369944    1.49317663535323   -1.82168031236524
H          -0.58716405929683    0.52809612651189   -3.06033497925703
