    23
        -45.37054994  Gyration_radius:  2.32583429522 Dipole_moment: 2.930
 S           1.64352387287052    0.36232934114732    1.08853370127980
O           1.23602106346041   -0.86252291704029    0.40221230147916
O           2.74008872348811    1.05681109091067    0.45824987050916
O           0.50290957840033    1.19963739597123    1.39394569802784
O           2.20360062813442   -0.16218864969701    2.49601544139778
H           2.77152966199739    0.54785173110862    2.77888699412373
O          -1.35924370650368    0.92857684138428   -1.74445541833941
H          -1.69079903424738    1.55740284493954   -2.38723826350485
O          -0.64117969405257   -1.75377655260914   -1.61907175152587
H           0.23230930140330   -1.56883126296607   -1.24625604750505
H          -1.00384636182698   -0.88446527004712   -1.85578147042307
O          -2.05414606941296    0.85013813590599    0.91224233621203
H          -1.17237659068904    1.16170218264597    1.21622229999125
H          -2.02014046890646    0.98171352662302   -0.05285505918462
H          -1.70030635117533   -0.63982607224933    1.04171137658090
O           1.27311497315214    1.27311340254598   -1.69969722769698
H           1.80297637395604    1.31309715581488   -0.87519318600548
H           1.73514132904379    0.65216642924940   -2.26771442939637
H          -0.39696544792924    1.12400412391293   -1.64532279367872
N          -1.18828244531636   -1.58897289491325    0.96210044958616
H          -1.32236102286984   -1.95300234787803   -0.00649239385881
H          -1.43894489094850   -2.25272115560705    1.68477486679549
H          -0.15262342202854   -1.34223709915311    0.96518270513627
