    23
        -45.37890821  Gyration_radius:  2.28825167631 Dipole_moment: 2.674
 S          -0.24984896704494    1.59925433586320    0.38762955807344
O          -1.00106023445309    0.44772880576082    0.85466995570929
O           0.94760271281555    1.86766303660376    1.14598760329822
O           0.01316325779372    1.49924684165671   -1.05101021005402
O          -1.18905622185591    2.86161318073096    0.57884247739798
H          -0.56390772493138    3.52145108139590    0.86044335844265
O           0.09167590500744   -1.43151399503357    2.44666428964904
H          -0.37580480451817   -0.67450268458256    2.04624523794431
O          -1.89765468692254    0.15685958368067   -2.37670495595797
H          -2.73182291409596    0.61899174622750   -2.28508424804713
H          -1.22324809062121    0.73121447929636   -1.96057846164382
O           2.30318782199276   -0.42426173569408    1.29748926278632
H           1.69276734462063   -0.91443635532914    1.88618378152372
H           1.83188994415737   -0.75634016750055   -0.12701584534004
H           1.99315976849037    0.50319510420410    1.35535562964279
O          -1.10759683269963   -1.76939658128212   -0.64917113843361
H          -1.54603521611262   -1.39335961518491   -1.43465297533184
H          -0.33336091720640   -2.21806911806315    2.09759201066731
H          -1.22342302173943   -1.06478520271948    0.01929972563168
N           1.30425175203683   -0.80275318080858   -1.06880680238428
H           0.93796076825370    0.16556875580831   -1.23702626364397
H           0.43211942469689   -1.40260384674664   -0.95709430029543
H           1.89504092232870   -1.12076444829672   -1.82925768963192
