    23
        -45.37055024  Gyration_radius:  2.32604922359 Dipole_moment: 2.932
 S          -1.58081193415479   -0.66971799197212   -1.03469813309631
O          -2.78429553400962   -0.99118959104919   -0.30637862539812
O          -1.11094900105257    0.70093358842138   -0.84053590307708
O          -0.50641350483788   -1.62465392582882   -0.86356671424180
O          -1.97824732705379   -0.71627987978262   -2.58697639615446
H          -2.58564426112374   -1.44832733485053   -2.63052331886116
O           1.12235523615565   -0.23272382272886    2.10650815638556
H           1.34114425829995   -0.57065234708151    2.97625079987211
O           0.67975160724177    2.21361330396793    0.86418594259104
H          -0.17586780455029    1.94663604675632    0.49969910296449
H           0.93673279242591    1.49114669095259    1.46026476254136
O           2.02632094040193   -1.26045303986592   -0.27544690022214
H           1.90394166676604   -0.99438648843321    0.65413427106828
H           1.14512752002514   -1.61554814898349   -0.52923521956125
H           1.83065109656974    0.07244871102627   -1.01503097931532
O          -1.51880121583278   -0.41741201864302    1.91222446547451
H          -1.96270458666857    0.40272010693491    2.14018367272731
H          -1.98385021199895   -0.75037322018172    1.11520156844786
H           0.15632484306770   -0.39618694954181    1.98714350812376
N           1.40858327737119    1.00276868698009   -1.36965939969505
H           1.77870302347384    1.30817693494027   -2.26149943175765
H           1.50048593693220    1.71384957185733   -0.61150042528529
H           0.35746316255326    0.83561111710542   -1.39074479353069
