    23
        -45.37054991  Gyration_radius:  2.3259931589 Dipole_moment: 2.928
 S          -1.58882154608359   -0.65980788686408   -1.02832271690787
O          -2.90010474590946   -0.22938674153901   -0.60722315339261
O          -0.67009874099062    0.43409985117465   -1.33921651035283
O          -0.97080940075300   -1.63451353070244   -0.15447572619663
O          -1.79651486408449   -1.39119194788318   -2.43962754568561
H          -2.62813842539760   -1.84110585057770   -2.32766320502659
O           0.71123162798302    0.59493747595680    2.21194364485887
H           0.68947573238430    0.70825623303222    3.16334871557094
O           1.34886055067081    2.07006108975639   -0.05549771619524
H           0.50227428724021    1.89141334592102   -0.48857730112970
H           1.25127204216683    1.71893790928075    0.84475965285482
O           1.43371755555324   -1.70707307306864    0.89737327255573
H           0.51826087704071   -1.89375030214983    0.59073073890291
H           1.82957541950061   -0.94746741997827   -0.37893570785094
H           1.31473579377097   -0.98013016540925    1.53548793290839
O          -1.77065361618681    1.04337857714060    1.38244251565792
H          -0.22645316639872    0.65549642108007    1.90997676120006
H          -1.90110718388216    1.94730457863689    1.08654579896193
H          -2.23300041649511    0.48535924056329    0.72129773705684
N           1.82447541216335   -0.25865462184621   -1.21240301209732
H           2.37905154452774   -0.56543898664308   -2.00233131579896
H           2.08715867808999    0.68673321774293   -0.85724930189802
H           0.79561258509188   -0.12745741362348   -1.45238356799698
