    23
        -45.37055026  Gyration_radius:  2.32610881499 Dipole_moment: 2.930
 S          -1.60769498789781   -1.19727063612783   -0.00265798582830
O          -2.49423937305199   -1.14890023436681    1.13477731014694
O          -1.40837802800174    0.09197074068781   -0.66233459486730
O          -0.34597526093683   -1.85997216325862    0.25153241400915
O          -2.35972007209930   -2.07666664261357   -1.11203857072065
H          -2.78878278466503   -2.75195953462456   -0.59574097042330
O           1.63468865449878    0.97406120582973    1.45955920512451
H           2.13051311773479    1.15823558163241    2.25880871684891
O           0.38427282599758    2.36866553047386   -0.59339183945128
H          -0.45774309181389    1.90514528340899   -0.48238797566542
H           0.93008371593170    2.08450993127888    0.15803871109002
O           2.11475816524010   -1.10700425427225   -0.26871594547482
H           1.29509217370945   -1.58837076671730   -0.01685433483042
H           1.46049920854187   -0.37776156560410   -1.45312280935794
H           2.17393402860369   -0.39724812301669    0.39656914924586
O          -0.86851783942805    0.57440543685749    2.24850917114945
H           0.72761632967858    0.72114054716048    1.75523098925856
H          -1.40647709804649    1.36662452502482    2.18022260889520
H          -1.43523637444333   -0.15282007740454    1.91332103610668
N           0.77448897776587    0.20145106576041   -2.05567599907327
H          -0.18776563879977   -0.00673545408590   -1.65057889703103
H           0.83635203869140    0.00923333440391   -3.04807362223068
H           0.89823130279081    1.20926627957337   -1.81499574692076
