    23
        -45.37055023  Gyration_radius:  2.32610721663 Dipole_moment: 2.929
 S           1.99100435393416   -0.08657901984560   -0.21599853550061
O           0.96851111264303    0.31170255540402   -1.18194742856123
O           2.77931725554668    1.00816318272089    0.29610343634675
O           1.44280990818864   -0.95583715037582    0.80354741970384
O           2.99601440476184   -0.98820543601059   -1.08011385268576
H           3.80380934697451   -0.95018824481232   -0.57749967639726
O          -1.71235335985375    0.77169794389198    1.49126793746631
H          -2.12335570148985    1.13813091486842    2.27574141045410
O          -1.82426737583574    1.08345852491990   -1.26822921690808
H          -1.99141833024473    1.08266191501501   -0.31149307273331
H          -0.86966836455930    1.21411422907931   -1.35682008475568
O          -0.99818462493035   -1.85900084051455    1.14906999914647
H          -1.06828556506536   -1.76027684307547   -0.38315297574594
H          -0.03435355492338   -1.66864031632397    1.19076836949451
H          -1.40711764032947   -1.01798165679594    1.42355471832705
O           0.57356616114674    2.08998944568853    1.20022268841384
H          -0.81630821846846    1.18203520822286    1.43757440986878
H           1.42625509776972    1.65838658271063    0.97885926573335
H           0.49770365294882    2.82788477660567    0.59085163990047
N          -0.95674546813080   -1.41011770325602   -1.40011817916174
H          -0.03295599950834   -0.88105600620890   -1.40738438740629
H          -1.64718180421076   -0.64424909563458   -1.56014547604756
H          -0.99679528636364   -2.14609296627310   -2.09465842895150
