    23
        -45.37055030  Gyration_radius:  2.32612947781 Dipole_moment: 2.930
 S          -1.10770197869230   -1.66571309364846    0.12575428252121
O          -0.67964629139410   -0.75257395893872    1.18402055998771
O          -2.51051569359612   -1.57736377771619   -0.20042903592370
O          -0.22338125406477   -1.59838691619392   -1.01838571059955
O          -0.89475330488378   -3.11753530649117    0.77133993972843
H          -1.47449611784147   -3.66908559466805    0.25517737933217
O           0.23695653942241    2.02707325163616   -1.25833656600737
H           0.09683446427201    2.68142106999431   -1.94442891580779
O           0.41402302673542    1.91229945160920    1.51195807395769
H          -0.25527097762700    1.21809602830497    1.59070145907553
H           0.39301341768487    2.17851349526185    0.57808678230828
O           1.91805543911522   -0.13872070205450   -1.43944153123755
H           1.46902711465938    0.72067116205580   -1.53746057917265
H           2.07890784950074   -0.24039966639981    0.08598753429547
H           1.18032618749477   -0.78770157488650   -1.47886616083094
O          -2.14416548283806    0.94158946307206   -0.81167178764651
H          -2.60306608484267    1.35173262874960   -0.07490477118013
H          -0.62028342284771    1.54745311045173   -1.16177811096838
H          -2.29108048522709   -0.02233244669317   -0.70368481347156
N           1.86593117548759   -0.26586200292629    1.14574469030462
H           2.55745826839144   -0.76515120833327    1.69176614077529
H           0.89238181716944   -0.69032827284528    1.21885635747390
H           1.70144578392165    0.71230485065977    1.46999479308552
