    23
        -45.37890638  Gyration_radius:  2.28834837941 Dipole_moment: 2.624
 S           1.53995222865572   -0.44475552215722   -0.45337590329222
O           1.23894121140876   -1.57353784459210   -1.29991124614873
O           0.82831902283669    0.76942033360514   -0.81224585068356
O           1.36061229173422   -0.74995306609493    0.96874518072738
O           3.08349334449942   -0.14335576623339   -0.65076166163632
H           3.38429577653898   -0.95376745969728   -1.04824901754938
O          -1.37346809129063    0.73774311548396   -2.36461191740737
H          -0.47969485288529    0.79377077107325   -1.97735112817263
O           1.01901277838148    1.44114809827258    2.48369193185866
H           1.23131339760654    0.62008645966335    1.99534914480049
H           1.80116157283344    1.99172416605273    2.42845175460984
O          -1.41848701455656   -1.77594925843950   -1.41445376508422
H          -1.48228488896248   -1.32144078398886    0.05224071071760
H          -1.60161924518058   -0.96734680215880   -1.93621675138169
H          -0.45054497925208   -1.89881900290016   -1.50126455145091
O          -1.08752289866590    1.71391850057950    0.80726863016970
H          -0.41491150370817    1.56174498413617    0.11339871264361
H          -1.88572452339664    1.43296189459767   -1.94571551859111
H          -0.54410420688583    1.88112822291674    1.59913564496020
N          -1.27375749588091   -0.90227321760021    1.02604206753877
H          -1.80456947852928   -1.35183057509636    1.76397483863162
H          -1.43041056754573    0.15023950342232    0.99967860388579
H          -0.24000187784164   -1.01085674095921    1.16618008098943
