    23
        -45.37055015  Gyration_radius:  2.32613700782 Dipole_moment: 2.924
 S           1.39334401258089    0.19338272380786   -1.42804388514120
O           1.60844094826667   -0.91685747876817   -2.32427332128480
O           0.01660051329260    0.68421946559512   -1.40160264598602
O           1.90549621059368   -0.01163084185560   -0.08969859639061
O           2.22072736876537    1.42218949612987   -2.04074363172611
H           3.00463985496803    1.00351755688809   -2.38279156221725
O          -0.99644433070075   -1.61105542046147    1.47064015608395
H          -1.14453208605020   -2.43977384073649    1.92869698334688
O          -2.45455565433042    0.28857900067285    0.06078484167361
H          -1.87158393494769    0.25796837495885   -0.71082863254349
H          -2.15478960473179   -0.43688902929665    0.63278314529750
O           0.76852084691099    0.34454921528242    2.24988303485233
H          -0.00770753973158    1.44779289412249    1.51339870654495
H           0.14583387521491   -0.40381794192167    2.20392885859372
H           1.38401784152025    0.17590188772920    1.50176007740642
O          -0.16379753717514   -2.27786415268378   -0.96025444880373
H          -0.58750864467586   -1.84909609338419    0.60442758458745
H          -0.87784788962638   -2.29537826882216   -1.60172681189236
H           0.58503325248765   -1.83999187053651   -1.41835187157500
N          -0.55961408725064    1.99336445875678    0.76032028515003
H          -1.53675263524801    1.62738919031610    0.74145604666670
H          -0.17407226849993    1.64373592533658   -0.16819598488215
H          -0.50344851163210    2.99976475886944    0.85843166223901
