    23
        -45.37055018  Gyration_radius:  2.32601199326 Dipole_moment: 2.930
 S          -1.27630444287567    1.53726263441176   -0.15579611783789
O          -0.87882800322129    0.77577813076335    1.02710538728986
O          -0.73273088564647    2.87280772034060   -0.20978283281402
O          -1.08825514202116    0.76657901689652   -1.36666706137269
O          -2.85990295246463    1.71175560327659    0.02239860134064
H          -3.05446308633626    2.47036005878582   -0.51908466547882
O           2.18293016035496   -0.72563070037782   -0.67648339340137
H           3.02998248038574   -0.73106617050359   -1.12481982084379
O           1.17518562032043   -1.07945868604768    1.88879012127140
H           0.68832286100464   -0.24334765413089    1.88241331631295
H           1.71337396981100   -1.06436603061501    1.08040350121223
O          -0.17792957784013   -1.67096834999770   -1.71668461911335
H          -0.56848296686157   -0.77341084908773   -1.81084720490489
H           0.75505550666103   -1.49025425939562   -1.50065268173216
H          -0.78431052695306   -1.91468982241674   -0.32544373961013
O           1.66691130996586    1.82688581370166   -0.15900012330936
H           1.93237905022342    2.08341090991523    0.72722876460579
H           1.93553892498639    0.22447824371055   -0.57553788055850
H           0.78959895839967    2.24350819105944   -0.29699618544911
N          -1.08038089047637   -1.78844562749841    0.70683094420022
H          -1.88516053112189   -2.34215231491657    0.97401458491382
H          -1.23941742075300   -0.74185220774180    0.81951509682247
H          -0.24311241554120   -1.94718366013295    1.30909599845786
