    23
        -45.37055013  Gyration_radius:  2.32597716389 Dipole_moment: 2.932
 S          -0.69071053013322    0.40659278338479   -1.83714286988219
O          -1.13832067555673    0.91757044033059   -0.54265579081322
O           0.02721675244317    1.36942777213085   -2.63699120709132
O          -0.02288261342779   -0.87023130328935   -1.69754000292800
O          -2.05800914235889    0.11336009130431   -2.62081575578457
H          -1.78843244330599    0.12709346635723   -3.53397974719271
O           2.03200862417877   -0.20334565014014    1.25817442034294
H           2.96990198304877   -0.24621989452509    1.45061536358514
O          -0.24172512109714    1.08181904591987    2.20814097970034
H          -0.48870630987776    1.42643931478963    1.33838239523276
H           0.63905208805426    0.69170053347836    2.08430831604447
O           1.78644664698677    1.56366434794564   -0.70804944974740
H           1.57391339840935    2.44348497131159   -0.38803099031954
H           1.94495550394156    0.37025195043082    0.45972713859937
H           1.21368753515327    1.42855275382590   -1.49293300990946
O           0.47484575195291   -2.31307964131039    0.43825430739508
H           0.36554436523414   -1.95935297798536   -0.47285507107299
H           1.16007352653703   -1.73715099440812    0.82375189393923
H          -0.81605859061843   -1.66927225435237    0.96756793063472
N          -1.59261318396265   -0.95171866220692    1.19484481213525
H          -1.59699740558322   -0.28253871883343    0.36704999039680
H          -1.25479220850644   -0.33829831939325    1.96849096791375
H          -2.49839795151137   -1.36874904476547    1.37168539882112
