    23
        -45.37055013  Gyration_radius:  2.3258941095 Dipole_moment: 2.932
 S          -0.62787328470548   -1.09078066548263   -1.56010612810728
O          -1.44097934881245   -2.25314150875691   -1.29599553862200
O          -1.16974034877418    0.15482987458621   -1.01980473356862
O           0.76988445236261   -1.24973764450385   -1.21875934777892
O          -0.67850854718922   -0.86727217641872   -3.14673606584483
H          -0.66657099148895   -1.75583556068296   -3.48883134796271
O           0.70158719712590   -0.19117035594273    2.28536061598532
H           0.95948829939981   -0.59429512514517    3.11572099555752
O          -1.01329657941996    1.79357379336154    1.36595586473196
H          -1.44144248637194    1.21425035632186    0.71999568027178
H          -0.44380287048095    1.20830964365830    1.89169016028265
O          -1.15979704458433   -1.78570074880116    1.26457982472684
H          -1.18805622369479   -2.05533220632954    0.32181142294966
H           0.08873268778533   -0.83171015381190    1.85159531252847
H          -2.05032260686742   -1.49203617209248    1.47051220834934
O           2.37820160224470    0.29682304107267    0.16453651760037
H           1.48750713332088    1.42393162842255   -0.38106144709935
H           1.98482075801742    0.13672366314995    1.04175245223015
H           1.97051131263941   -0.39850222105719   -0.39884619265887
N           0.62617521243050    1.99612775833836   -0.69765297968653
H           0.83939094841633    2.71945671703045   -1.37365623527910
H           0.13651762472954    2.34884284800817    0.15369294489801
H          -0.06242686608262    1.27264521507515   -1.06575399350440
