    23
        -45.37055026  Gyration_radius:  2.3262216138 Dipole_moment: 2.927
 S           1.53596918003188    1.27444760259378    0.18778037631237
O           2.42684104481108    1.10582021371561    1.31027480327450
O           1.41014363859150    0.09044693805262   -0.66042351174292
O           0.23880532877621    1.81748193926955    0.53132064517873
O           2.23311657780012    2.35337332720452   -0.77131229864458
H           2.62134401169693    2.96770973457047   -0.15603341396315
O          -1.57186745497752   -1.27623639060677    1.28503857351844
H          -2.05441409692564   -1.60703236369225    2.04412532846964
O          -0.24788708802518   -2.27061428440158   -0.94717318008620
H           0.56643429249647   -1.78195326345134   -0.76211546269197
H          -0.80705629390130   -2.13514725417998   -0.16471425205438
O          -2.17595342560094    1.01154450400481   -0.11126228235102
H          -2.19220188038353    0.20715871479935    0.43876870412557
H          -1.38473240141236    1.49562619830037    0.21533335961448
H          -1.48378174555795    0.50830683558329   -1.38801294390874
O           0.90573456520959   -0.85593846498227    2.14127255797386
H          -0.68027488417878   -1.01908344352839    1.62118625440748
H           1.48935218863992   -1.59645793792060    1.96051905168348
H           1.42857002631923   -0.05516741244963    1.92259599023543
N          -0.76698846230008    0.06706127309465   -2.06680292829611
H           0.18279691572658    0.26661796775315   -1.62923676641682
H          -0.84230818030820    0.40301439517500   -3.01922557480417
H          -0.83164184652841   -0.97097881890457   -1.98190301983360
