    23
        -45.37055011  Gyration_radius:  2.32605540558 Dipole_moment: 2.928
 S          -1.81426189230805    0.72426746882281   -0.44845026050369
O          -0.49954217853388    1.15708032025093   -0.91894155691208
O          -2.59897604212357    0.03056096650719   -1.44099820830009
O          -1.71967696010565    0.03962906875361    0.82350945415366
O          -2.58390959966116    2.10065327559607   -0.16017157653825
H          -3.50074735612918    1.84719940328113   -0.20436542688968
O           1.22122985815706   -2.05291427085626    0.21229629459895
H           1.39960695877127   -2.99390745100624    0.24728674436410
O           2.24204403138137    0.21993999156202   -1.01700458801698
H           1.38682685720984    0.48473788281568   -1.38394906989457
H           2.09284728740012   -0.66314817254997   -0.64104372778877
O          -0.69361137468861   -1.75739481242867   -1.60274179664650
H           0.43954718566281   -1.94689483404890   -0.38092659637706
H          -1.47248359775612   -1.17326515707525   -1.48244363054151
H          -0.34659166494416   -1.54126164025601   -2.47136691910304
O           0.36715420529625   -0.50948341639000    2.31907197000340
H           0.75793340508536   -1.19360166117694    1.74545567037408
H           0.93318284775481    0.78121005940632    1.70507645410195
H          -0.53207372415122   -0.38188362740014    1.94210077184775
N           1.19157052073924    1.56204853620145    1.00322468318375
H           0.38287539930483    1.58671149073418    0.31137657475484
H           1.97689564044009    1.21942709955590    0.40744481210906
H           1.37016020319899    2.46028945970093    1.43555993802026
