    23
        -45.37055019  Gyration_radius:  2.32606835424 Dipole_moment: 2.933
 S          -1.40246651887618   -1.34327166622029   -0.49748675205393
O          -2.77786614535015   -0.90844872254790   -0.53437946826221
O          -0.50707090664535   -0.57300095993141   -1.35887428736736
O          -0.85718570358734   -1.48640354107259    0.83585596451312
O          -1.38457358604732   -2.80809354917666   -1.14825020213849
H          -2.19506604689840   -3.19381152434955   -0.83027892219334
O           0.37961106814103    1.91618430283005    1.39232117824854
H           0.22606613301477    2.58881590755389    2.05756859724828
O           1.23636296195455    1.73909422149549   -1.24574793818704
H           1.03849890812926    2.01072649805090   -0.33452433017986
H           0.46503175740969    1.22817890961635   -1.52915454210942
O           1.38573467440836   -0.59531749792786    1.86949752582452
H           1.14594712064093    0.34888685388325    1.89892013859257
H           0.53012865427821   -1.04259776073213    1.68301501321807
H           1.90945922427622   -0.74501155574276    0.43209318587542
O          -1.98903083005946    1.44807914662197    0.28872541101098
H          -2.33061529744005    0.54945317874663    0.09331439768703
H          -0.51162781491226    1.66216496461561    1.05264822141525
H          -2.12464535499300    1.95132049152061   -0.51743508878150
N           1.98053788059673   -0.72551827473740   -0.64665561172349
H           2.14441011489503    0.26064002182378   -0.94601553048582
H           0.98758117285691   -0.89895302267884   -0.98906702390311
H           2.65077854420743   -1.38311642164190   -1.02608995624786
