    23
        -45.37055024  Gyration_radius:  2.32633132069 Dipole_moment: 2.926
 S          -1.13141162596645   -1.37579166666770    0.91912672824591
O          -1.45826442640056   -0.51021338918461   -0.21265167030984
O          -0.93700459707023   -2.76172361399505    0.56749834969160
O          -0.07083120485705   -0.81026844449940    1.72601377336184
O          -2.45444498617879   -1.33103460305500    1.82315166904515
H          -2.38822630909461   -2.12863571521724    2.33910694119951
O           2.18954523488233    0.35147465619942   -0.91169734880703
H           3.10775908024965    0.19145349000602   -1.13490035444678
O          -0.14548765890439    1.18218801817900   -2.16656011093872
H           0.77181405112449    0.98772152927993   -1.91308834116408
H          -0.65725920302313    0.41921646553876   -1.86308441484284
O           1.28168077998459    1.42313422659364    1.45034518871033
H           0.88659032933774    0.57601543414299    1.75579017634817
H           1.80182545287989    1.16154903714070    0.66886794051821
H          -0.02004525601843    1.93205871236160    0.80990464014672
O           1.00542228553003   -2.02193398243451   -1.02365369361002
H           1.76679555935226   -0.53813995676376   -0.84810046688876
H           0.36532435109334   -2.34267985282997   -0.35292940771233
H           0.58618104290484   -2.18467611871143   -1.87182342214129
N          -0.92797260643336    1.98887429015678    0.22561319735780
H          -0.66490087045045    2.12606243639621   -0.77494867689948
H          -1.59514686267629    2.66933335364324    0.56838210830019
H          -1.31194257026673    0.99601570371969    0.21963719483499
