    23
        -45.36026669  Gyration_radius:  2.3194908737 Dipole_moment: 3.814
 S           0.37031329321189    1.36854973314009   -0.80204183311967
O          -0.29857997613086    1.95880834119939   -1.94282990296696
O          -0.53193720387895    1.24701288792703    0.35521148654077
O           1.02806257025923    0.11607273380133   -1.06885712529978
O           1.48742061931471    2.40618062081617   -0.36247140399909
H           1.12693272926050    3.23833363314280   -0.65254921992463
O           0.18764138855869   -2.50504659780825   -0.40150852251045
H           0.54809915124480   -2.17829475659109   -1.23466081163772
O          -1.90276576035356   -0.00284131471362   -2.53107859186075
H          -1.25852188138251    0.74130339312527   -2.42100825808759
H          -2.71318885998777    0.39143517655499   -2.86075459655704
O           1.92486269508235   -1.31549743036876    1.05928241794156
H           1.49392537538582   -0.86585369934095    1.82293731516579
H           0.87198344366056   -2.19898139673012    0.28291839617776
H           1.91429106194998   -0.66048244623421    0.34111298473185
O          -1.69206060252576   -0.91584063673739   -0.14934827285175
H          -1.24510784234249   -0.04845469982187    0.18511187681291
H          -1.90818093605756   -0.68460979684334   -1.11360343769681
H          -0.88397483065336   -1.67878444612828   -0.21029609495383
N           0.53205378116631    0.19749605634132    2.83060050302353
H          -0.21645083293531   -0.18389444947225    3.39494124279326
H           0.10943570501896    0.72988183240013    2.07180698104576
H           1.05574690140101    0.84350726242866    3.40708486736828
