    23
        -45.36026707  Gyration_radius:  2.31955405831 Dipole_moment: 3.815
 S           0.11492273158353   -1.12645631634279    1.17028743728416
O          -0.12810640817751   -1.37147044404231   -0.26121763868248
O           1.29202262260551   -1.82666203447442    1.64083468363218
O           0.09656050762654    0.28429133088589    1.45623478198891
O          -1.11715493323265   -1.77930933549302    1.92761428456990
H          -0.81249725564428   -2.66479981838943    2.09987068351956
O           0.60355590188742    2.45358668253738   -0.29481654093784
H           0.92758944802365    2.31353111269996    0.60303351992331
O           3.11061859053232   -0.44445415195131    0.39620295687753
H           3.81666313988688   -1.05432165005421    0.17145899168678
H           2.48069565808068   -0.95039264785915    0.96909856392449
O           1.37397673779524    0.33489796786574   -1.31473031867643
H           2.18619663509501    0.10821297476098   -0.75001420203775
H           0.68634126477712   -0.36376530110700   -0.99358253610032
H           1.02132581947167    1.31793692860740   -0.93017697593041
O          -1.81218428757304    1.79267814005312    0.24724615835391
H          -0.40065743288382    2.33946214893765   -0.19939759818435
H          -2.17203420758916    1.18222197532424   -0.43749925807705
H          -1.38767730724837    1.21476150141345    0.90358597083331
N          -2.47092799245686   -0.19384630980451   -1.48077930601338
H          -2.33564907523176   -0.10773781785499   -2.48006100251813
H          -3.34832790708178   -0.67421546650538   -1.32763656231462
H          -1.72525222025515   -0.78414945919915   -1.11555609314507
