    23
        -45.38086668  Gyration_radius:  2.27620713113 Dipole_moment: 2.833
 S          -0.00502765840213    0.46845924580958    1.67014704987081
O           0.41933017210072   -0.91331151263675    1.51869398570235
O           1.04826306501770    1.39740447705468    1.29225254108333
O          -1.26045777609127    0.75927784764115    0.99917935118218
O          -0.28944423965851    0.68054822360486    3.21308049590508
H           0.47275265336519    0.28993104666225    3.62756108034265
O          -2.96248665172045   -0.86401884800364   -0.26062496357485
H          -2.44425003910963   -0.27375445388731    0.32199807733381
O           2.64172613198463   -0.23286061119756    0.01602657605129
H           2.37862668989991   -1.02446762881397    0.49881843351796
H           2.19316549412509    0.49082150071728    0.51301082799609
O          -0.26516839298458    2.04078058856403   -1.06242551788624
H           0.44982954005276    2.48007872644943   -0.58915945123800
H          -3.51422752263325   -0.29122115883074   -0.79544960651464
H          -0.79530876228392    1.64195502625448   -0.33718143149460
O          -0.56411264192987   -2.01584413832296   -0.70142266625205
H           0.21267439701088   -0.99932261675854   -1.56107741480875
H          -0.21926260753362   -1.77144506369329    0.18385381227661
H          -1.51462900349861   -1.79355647231476   -0.65935718638404
N           0.85087511078048   -0.21228846302004   -1.92889336273113
H           1.70691721454920   -0.23509866371071   -1.30370068344656
H           0.37318226191213    0.71314406884634   -1.74862042821684
H           1.08703257496079   -0.33521111049100   -2.90670951872321
