    23
        -45.38083296  Gyration_radius:  2.27604922082 Dipole_moment: 2.706
 S          -1.72079032242764   -0.11281699716519   -0.24434452164915
O          -1.39573040734326   -0.20048944154906   -1.65719235734144
O          -1.22224186079601   -1.25753207165894    0.50185731621811
O          -1.31251914824844    1.16203095522047    0.32450133953520
O          -3.29744898035296   -0.17112017828245   -0.10434273264609
H          -3.45568935800727   -1.09650912927904    0.04990367542370
O           0.02036459623606    1.69775195399667    2.56910210729285
H          -0.59508310155904    1.54693312546903    1.82365266332470
O           0.40006401149104   -2.09384273335742   -1.59167243162508
H           0.06584515799644   -2.52338538086576   -0.79654731069699
H          -0.29918382143382   -1.43008837200273   -1.79869371712102
O           1.03049976586403   -0.68403281440152    1.81299738253023
H           0.17093270934382   -1.00136414084536    1.46329340128847
H           1.75240702906253   -0.40234193899035    0.47869694506869
H           0.80899442305488    0.14672105371612    2.27771063279070
O           0.55469443670491    1.75760867070228   -1.42094601263752
H           0.34558686867834    2.59352274551407    2.46703856891206
H           0.10847158251202    1.40787463207926   -2.19962181709429
H          -0.14087346608165    1.70742164642665   -0.72785517418240
N           2.02487680441938   -0.28279576751954   -0.55683824364075
H           1.58519003974317    0.60999075298475   -0.91351017506675
H           1.54265887810559   -1.07956862531984   -1.06383118842749
H           3.02897417302098   -0.29396795491902   -0.69335834026431
