    23
        -45.36026688  Gyration_radius:  2.31959143996 Dipole_moment: 3.816
 S          -0.72068104797601   -0.11167040582400   -1.45519743307775
O          -2.09593301443882   -0.44591818076138   -1.76208667351805
O          -0.62822263081165    1.09210479094820   -0.61217980847853
O           0.05161172181323   -1.18837412466403   -0.89244666810004
O          -0.04608331616880    0.28426724322037   -2.83575807696885
H          -0.78336664558704    0.60718724448340   -3.34436857749641
O           0.81945359024251   -1.59674413627628    1.80357267397042
H           0.45858414916133   -2.23263237036030    1.17413881621291
O          -2.86493024503388   -1.20905541494599    0.60306146692652
H          -2.61523614617558   -1.02202436347394   -0.33691379153780
H          -3.78480575266255   -0.95041951290064    0.69193238562844
O           2.48910026702882   -0.58380514532873    0.14424736315977
H           2.47230301016627    0.40068564476342    0.18339628515049
H           1.60209882540155   -1.19098575760035    1.30031585073405
H           1.81088097824919   -0.82251716977181   -0.50998436399243
O          -0.95753856116012    0.12023686086633    1.67347516807781
H          -1.77180124031476   -0.43228915520490    1.42518554437849
H          -0.13592982380023   -0.61932652993147    1.80198841231225
H          -0.75993921047361    0.62031130480522    0.79304297039634
N           1.99686057791838    2.08473279371387    0.08578731868159
H           1.94493395796100    2.64469666230633    0.92721414999426
H           1.04497331456538    1.92075062934170   -0.23815604572847
H           2.47366723218851    2.63078909260272   -0.62026697666607
