    23
        -45.38087148  Gyration_radius:  2.2762563552 Dipole_moment: 2.882
 S          -0.88397804309538   -0.01449310388300   -1.49138635515385
O          -1.18830244405015   -1.18941608351577   -0.69255764093655
O          -1.54959189724372    1.17143237372883   -0.97436805304323
O           0.54077496150534    0.19230430494533   -1.68473894329085
O          -1.47165671609351   -0.28441414664199   -2.93632378551291
H          -2.37762863514123   -0.51706479501252   -2.76133611477951
O           2.61874094684114   -1.33024581936947   -0.98757106537199
H           1.88073404549657   -0.83129857519798   -1.39096848838569
O          -2.23698194280277    0.29525701668633    1.38994482719513
H          -2.29193970100296   -0.63292026884731    1.13578430488309
H          -2.11079861984408    0.75487409022076    0.52709000583978
O           0.83913385791007    2.15219144646459    0.03317237159495
H           3.38398421573695   -0.75498510489008   -1.03232694910051
H           0.88816477366966    1.47628721965592   -0.67864459357912
H          -0.00981902769333    2.57671445513845   -0.13203320951733
O           0.81162584246811   -1.82782622226672    0.95129739764648
H           0.64158588742386   -0.48497814455570    1.68639491446230
H           0.04963476233812   -1.76879941238043    0.33621500527552
H           1.59439373949628   -1.81589045669493    0.36669512308757
N           0.31983757239930    0.48251423028686    2.03745153160330
H          -0.73837404452028    0.46194930954047    1.97566106110516
H           0.64549858516640    1.21153624820520    1.34521875650154
H           0.64496187096586    0.67727144820477    2.97732990949972
