    23
        -45.36026679  Gyration_radius:  2.31956076361 Dipole_moment: 3.814
 S          -0.10276883635681    0.84142829385403   -1.39045513248784
O          -0.74689287920704   -0.44974354698282   -1.09681265172231
O          -1.07153219192059    1.84886483474678   -1.76976089428310
O           0.78030807496981    1.22513932263898   -0.32022328536178
O           0.79261071987178    0.58665678432191   -2.67534371075280
H           0.20157306903051    0.80458416655979   -3.38931722851450
O           0.70744694066865    0.44697373688556    2.40228977180285
H           0.83748514124671    1.32645193704315    2.02764932478062
O          -2.23800776822780    2.17687651700941    0.53230730069510
H          -1.77990875727246    2.16998640930112   -0.34578488428691
H          -3.16174402431164    2.36297570997215    0.35069492331904
O           2.32946876365524   -0.71049391519687    0.79120186141926
H           1.40283402952700   -0.11520837677701    1.92168306207502
H           1.93648341983919   -1.53922616992413    0.43078418893828
H           2.04541706482349   -0.00956539162982    0.18046825891832
O          -1.42808416019478   -0.12880564675163    1.29305902607514
H          -0.48318168391665    0.07258361378631    1.84585741021938
H          -1.84835932599330    0.78386464839314    1.15008880193916
H          -1.15074963252448   -0.39075936979748    0.33461904211978
N           0.93075743060584   -2.70265058987736   -0.40946435876869
H           0.39868604075390   -3.38340430702795    0.11760903866041
H           1.37459238394379   -3.18632754810465   -1.17953236446986
H           0.27356619104102   -2.03020112242029   -0.80161750034381
