    23
        -45.36026667  Gyration_radius:  2.31941760949 Dipole_moment: 3.813
 S          -0.55620081413529   -0.00128127509407   -1.52973126277623
O          -1.19052351512819   -0.64127229000191   -0.36517609918111
O          -1.44592514401572    0.94356796887749   -2.17224867177919
O           0.73591705996250    0.52783451758415   -1.17916997009635
O          -0.32169603785600   -1.16778013619435   -2.57952973581918
H          -1.11935870222104   -1.14618119661045   -3.09897813324357
O           1.69869329204856    1.31258263172044    1.36595101110149
H           1.78012391821623    1.76940262324575    0.52007991875292
O          -1.48948175000304    2.77558281148955   -0.32575932518708
H          -1.44477602758544    2.16504307480036   -1.10430499959444
H          -2.36932722399665    3.15855266103917   -0.33633945876319
O           2.32474892803790   -0.98646532881066    0.42256156835428
H           1.91158631451042   -0.64127098646551   -0.38680063908583
H           2.04565637600079    0.38105451818325    1.16049128605669
H           1.70758142583165   -1.68187551841477    0.74897076629858
O          -0.76175004369775    1.05720741442052    1.42607371810423
H           0.34520700723988    1.15948519402667    1.47850814112391
H          -1.07335290688581    1.85267691154395    0.87842097454828
H          -0.94836702149037    0.26941920421843    0.78667140172211
N           0.29335800765312   -2.66578708097558    1.07089648920078
H          -0.05860855650815   -2.74957846910837    2.01601877944634
H           0.30438713094524   -3.59122441476008    0.66180992951432
H          -0.36789167700120   -2.09969284458853    0.54158432131355
