    23
        -45.36022588  Gyration_radius:  2.35983212731 Dipole_moment: 2.396
 S          -1.68714671101339   -0.44421077992528   -0.84591774534895
O          -0.89161167152976    0.72503306657381   -1.17717680122382
O          -1.20305944535270   -1.68333098537905   -1.39368089308392
O          -1.92888598589780   -0.52717398691274    0.59988409444109
O          -3.11072330707443   -0.19342757799793   -1.50110269602061
H          -3.43254622163159   -1.08550581610786   -1.57451522666982
O           1.31485876464416   -1.03655054632210    2.24324667632584
H           1.08476977809531   -1.81351385207048    2.75623211172950
O           0.06396139711781    2.45604797444057    0.50378643144446
H          -0.25644806425213    1.84720165011873   -0.21117214862592
H          -0.50591197072045    3.22681331757458    0.47391565640523
O           1.20470877541106   -1.78014985716435   -0.20585717711506
H           1.31716854981705   -1.33592006261740    1.27486752550317
H           0.32254374096259   -1.87998971172443   -0.60921100865287
H           1.65152591653184   -1.09262487083970   -0.75125210550650
O          -0.51380938994882    0.66808914343696    2.22804823464230
H          -0.19314329856756    1.45696527543134    1.66716420984895
H          -1.18381822017473    0.16351245052681    1.57935487066902
H           0.29303998146299   -0.00844081010359    2.30712016121557
N           1.95762389691238    0.35349408846660   -1.70256305271164
H           2.32533207423657    0.28030133677288   -2.64221708758293
H           2.40722980847168    1.13919274880135   -1.24973820069109
H           0.96434160257608    0.56418780502281   -1.76921582896339
