    23
        -45.36026689  Gyration_radius:  2.31949235337 Dipole_moment: 3.814
 S          -1.32258856487825   -0.17669395772488   -0.93427026559078
O          -2.09928698664442   -1.37247929542466   -1.18741702255586
O          -1.29968417572096    0.16439477924145    0.49801379408168
O           0.01168350154287   -0.19726157296825   -1.47441238832476
O          -2.10166205469320    1.01125760627102   -1.64094228105353
H          -3.00380792595196    0.70701430757760   -1.62900403450755
O           2.46471605110465   -0.61633562217124   -0.12133297973608
H           2.16016746298646   -0.99675722109553   -0.95399349089263
O          -0.51459426959820   -3.12313764771858   -0.09560906655063
H          -1.07390771228614   -3.80405941095517    0.28443330935328
H          -1.11613486361655   -2.52582053201567   -0.60772686654146
O           1.71833175691581    1.76723040746082   -0.69387881005481
H           2.33657260102403    0.38092321956094   -0.26153798425340
H           1.02882280061655    1.30824637578736   -1.20270086891589
H           1.24497304796888    2.17955894136565    0.06571470568513
O           0.56933523434705   -1.28724404819806    1.32080991338943
H           0.24146576685988   -2.13216775135695    0.86430556934265
H           1.46537376042644   -0.97484055272281    0.73895652470170
H          -0.17565208904769   -0.61306141465210    1.08690199267860
N           0.08607074822662    2.56502775121343    1.32249267112006
H          -0.41244525409199    3.43755761600119    1.20371590513087
H           0.35542609649022    2.49269769620415    2.29534743568948
H          -0.56317494198022    1.80595032635216    1.12213420779711
