    23
        -45.36026746  Gyration_radius:  2.31935716411 Dipole_moment: 3.833
 S          -1.04750546674242    0.07753119484756   -1.24592743144854
O          -1.05747723023879   -0.90726005114105   -0.15100470299111
O          -2.30255183118144    0.79514536173763   -1.33098048444846
O           0.12217128947493    0.91308765576547   -1.16954463610081
O          -0.93444827582915   -0.77299206579366   -2.58029303616009
H          -1.84520258606624   -0.93253108280070   -2.80762451733257
O           1.71758505661981    1.52750284526880    1.09065361328713
H           1.38610420338526    2.12225576447462    0.40730736824419
O          -2.11062067115157    2.20385753050629    0.84701604915898
H          -2.20537287977486    1.77027296641238   -0.03855201594461
H          -2.99978696264928    2.29598547861391    1.19609204155565
O           2.48239198457778   -0.28300370631803   -0.55409137363431
H           1.73921212731309    0.04610777481720   -1.08734511978202
H           2.17451769786181    0.79380869373127    0.55847801178784
H           2.20254146081960   -1.17671279406792   -0.24763263116875
O          -0.43065245849565    0.52781441343659    1.80471500371592
H          -0.64260962935743   -0.16470258509002    1.06988059878357
H           0.56615842132321    0.95240616824350    1.55316227721055
H          -1.09231779657527    1.26862331542687    1.59499407326463
N           1.26941122489991   -2.58368995164533    0.22343080760886
H           1.30799530195364   -2.91477049456407    1.17902298841517
H           1.35051153504984   -3.38753626826976   -0.38578173882684
H           0.34994548466349   -2.17120015351636    0.07402484476080
