    23
        -45.36026658  Gyration_radius:  2.31946634064 Dipole_moment: 3.815
 S           1.13311068301445    1.17070747342159   -0.00482381387045
O           2.48451979374290    1.12490623038095    0.51361873287501
O           0.91606780055851    0.15580767544599   -1.04929485375486
O           0.09973350907945    1.10154583377020    0.99506293392867
O           0.99078085946023    2.57099388319231   -0.73736311886471
H           1.88563587942638    2.76165172371372   -1.00092555125918
O          -1.53783623329964   -1.09765093075283    1.70269281334581
H          -1.06981319427919   -0.48059999978962    2.27804945115953
O           2.35533807283264   -1.14342313787193    1.78054350976625
H           2.44552694044997   -0.23370635097221    1.39949315661150
H           3.22094488681323   -1.55111982081073    1.70721685016115
O          -2.45337267505742    0.72071324241086    0.14645991648932
H          -2.06377882588135   -0.48614654251178    1.08626430044162
H          -1.63352487071808    1.18296467231432    0.38957243700990
H          -2.33437885216463    0.46736039848470   -0.79843301470031
O           0.37318259424197   -1.86402723892648    0.33047011484588
H          -0.52629307393286   -1.58486040549454    0.92378520572034
H           0.53030774266375   -1.09199028378285   -0.33538117588964
H           1.15375316386468   -1.75437156170503    0.96967427421181
N          -1.65894705294270    0.05391536437504   -2.36158623080045
H          -1.81774803316576    0.72920430469884   -3.09827614588530
H          -1.81365716903905   -0.86828134066560   -2.74862998696169
H          -0.67955190606948    0.11640680086749   -2.08818979481280
