    23
        -45.38087148  Gyration_radius:  2.27630103702 Dipole_moment: 2.892
 S           1.26316721306377    0.82334750677845   -0.85569911959613
O           0.84381957523132    1.57876632353722    0.31240938275187
O           2.09476536702008   -0.31268237534326   -0.48839505210392
O           0.15748950667688    0.44297308814821   -1.71744973429636
O           2.16203279298367    1.79435938489130   -1.72494023306600
H           2.81769392095697    2.09451466281378   -1.10405336353150
O          -2.43069372001014    1.08111528923736   -1.58936518164733
H          -1.47435895051738    0.95808043825501   -1.75255011387707
O           1.59516104496688   -0.41290839658533    2.07493596955420
H           1.39723424686702    0.52565435785793    2.17031468050903
H           1.93602908620719   -0.47549955447914    1.15212941065233
O          -1.67681861093383    1.04767413943290    0.99967701932728
H          -0.78552437115267    1.40796904716351    0.80391654482241
H          -2.16138283250076    1.13258461263324    0.15553091236920
H          -1.29510341332118   -0.41766342465710    1.28137284591913
O           0.02176439972564   -2.07882433201370   -1.00664133425499
H           0.96911569621811   -2.21610868557753   -0.89760527515659
H          -2.87906730653614    0.44307389657666   -2.14646319580944
H          -0.02448156678402   -1.18830204256470   -1.41971024748536
N          -0.78659726691006   -1.35799543757668    1.42295705222163
H          -0.58137194583911   -1.77041808929078    0.47203918617946
H          -1.31382108808561   -1.99487402906962    2.00899077803800
H           0.15094824275953   -1.10483639010523    1.84859906843741
