    23
        -45.38086621  Gyration_radius:  2.27619612079 Dipole_moment: 2.827
 S           1.07065863830631    0.88264368171926   -1.04033980752390
O           2.03161226811098    0.76992152469647    0.04549856957532
O           0.74773351233423   -0.41596059779208   -1.60766293954717
O          -0.10293299301330    1.64848597206223   -0.65708136891725
O           1.76123440171423    1.71425402042138   -2.19704040041010
H           2.38661916731944    1.09670388198438   -2.56147821795345
O          -2.69532629506933    1.13442333513784   -1.02072817038740
H          -1.76134625483253    1.42442460229585   -1.01055433736615
O           1.88334331255496   -1.79780286686484    0.50449998244782
H           1.62294858312175   -2.04243385156552   -0.39064323078546
H           2.10528165634826   -0.84111736097146    0.41871172165601
O           0.06629961253936    1.27383560552260    1.93422758419692
H          -0.10659964654015    1.55453008586408    1.00831269946278
H          -3.15867028184938    1.71080147945267   -0.41109399792413
H           1.02779964441158    1.29870879820087    1.98997871695448
O          -1.60781945186384   -1.31757570150880   -0.74148668863828
H          -1.07287480584242   -1.35421248058277    0.70356526195480
H          -2.20385007934329   -0.55613997108827   -0.88175518463176
H          -0.78279769725648   -1.06810698063122   -1.20996734634405
N          -0.47342921865668   -1.30855657563487    1.59833482496139
H          -0.35924436875007   -0.29337589932421    1.86923622230022
H           0.48656138099488   -1.65111858319497    1.30623681633968
H          -0.86520110459087   -1.86233212792746    2.35122931120980
