    23
        -45.38087160  Gyration_radius:  2.27637148666 Dipole_moment: 2.880
 S           0.66807627116773    0.29195553569109    1.57194110633329
O          -0.22971480677157    1.36438236106262    1.17841044649486
O          -0.06450052553837   -0.89759696683290    1.97846119057472
O           1.68313364123097    0.00157865333879    0.57427665895832
O           1.45943987459046    0.80658382621119    2.84281347445382
H           0.76512396263297    1.07767731140852    3.43425332918254
O           2.26334742613795    1.24837697659283   -1.71295411250012
H           2.17877362510151    0.86830339872661   -0.81588514869894
O          -2.42494474372300   -0.30758570740562    1.02363981094962
H          -1.62878458317538   -0.65114866778479    1.49231207099588
H          -2.31433250576994    0.64836212926688    1.07910048728693
O           0.61153946388124   -2.19703659569719   -0.37431973211402
H           2.79767028804604    0.63016570222914   -2.21381047197065
H           1.16773418324941   -1.43455812969667   -0.10031092591846
H           0.26659690966636   -2.52323029263826    0.46406805693666
O          -0.39911728926461    1.60585905411492   -1.47138359070699
H           0.53555050250087    1.61535440150795   -1.75555739302431
H          -1.00147150182095    0.19106225173479   -1.56640755854769
H          -0.35573151069576    1.69373303204585   -0.49521569236365
N          -1.41140059720771   -0.78686214378359   -1.37104585006633
H          -1.95878052598169   -1.13600308029360   -2.14918005966495
H          -1.99241898034804   -0.67324704245302   -0.49146099401545
H          -0.61578857789353   -1.43612600738365   -1.12174510256789
