    23
        -45.37890793  Gyration_radius:  2.28800287604 Dipole_moment: 2.653
 S           1.59686031288846    0.47099560014481    0.00801739095649
O           0.98257216502626   -0.56096299954642   -0.80846498107572
O           1.47317095050897    1.80170867908003   -0.53507155191541
O           1.12328161446982    0.38800413203153    1.39270252675910
O           3.14882566746414    0.15218094553606    0.05150919750200
H           3.52245279293797    1.02550198907805   -0.00448533594637
O          -0.84631582714952    0.00511129813500   -2.70439874926511
H          -0.05274132785871   -0.20043457558377   -2.17534354067530
O           0.49288713358899   -2.11491620608664    2.13445150774944
H           1.27274230209917   -2.66849728682696    2.07695285763769
H           0.79461634695150   -1.20273580156990    1.94837331352762
O          -1.10293542793078    2.16451685915370   -1.12446572949646
H          -1.16860287215719    1.53919164913008   -1.87557155487819
H          -1.46884434393617    1.33281277706847    0.11502733577479
H          -0.13887963246081    2.25578023836082   -0.97664665305583
O          -1.22311074135815   -1.80963064987240    0.06493057697329
H          -1.43007851393120   -0.75066175132656   -2.60805806963031
H          -0.42241554422455   -1.50962983257695   -0.41024003729597
H          -0.85407453964186   -2.21390163646357    0.87166765998156
N          -1.46578403413007    0.65490356178283    0.95639218400127
H          -0.48460239867788    0.66721832426220    1.32695545932364
H          -1.60759323457772   -0.34119922595356    0.60912502489375
H          -2.14143082789209    0.91464390204800    1.66664117818838
