    23
        -45.37055033  Gyration_radius:  2.32636275651 Dipole_moment: 2.929
 S          -1.61670793278111   -0.99456383710816   -0.64550059492219
O          -1.07044539368249    0.28364788353432   -1.09788108610998
O          -0.59680579593831   -1.81374939331691   -0.02536502510234
O          -2.83457201450457   -0.87997621652281    0.11984427424293
O          -2.01908823407305   -1.73638524808383   -2.00821474269084
H          -2.66093582192844   -2.37854871477665   -1.72115310214937
O           1.10835964060490    0.72010068908658    2.00057646486538
H           1.30899170867547    0.81521567923910    2.93290273588935
O           0.80471049031840    2.32494409824737   -0.24778853490643
H          -0.06523009889839    1.96304289971559   -0.46780881365921
H           1.02084838675875    1.95165654867909    0.62239162314798
O           1.95185649317577   -1.34333941430084    0.39463992540851
H           1.05219434434487   -1.73160075993699    0.31169722031246
H           1.83095763914343   -0.50043573937193   -0.88500150076767
H           1.84434651724706   -0.66901186834991    1.09005361889864
O          -1.53908906515995    0.59725213186022    1.84923288352063
H          -1.93739879743499    1.44998327772731    1.65974709906263
H          -2.02216883832709   -0.04475006500508    1.28622232834958
H           0.13449355014366    0.56874578831906    1.94679100206355
N           1.46150732809610    0.17742612546213   -1.64214151613245
H           0.40259610911419    0.07274860035486   -1.60960864704827
H           1.84749824516867    0.01338082481349   -2.56395946093455
H           1.59408152990007    1.15421670973255   -1.29967615135878
