    23
        -45.37055032  Gyration_radius:  2.32626661526 Dipole_moment: 2.931
 S          -0.79422811528848    0.51115880160067   -1.76798748402639
O          -0.74154316756664    1.57400733156959   -0.78648035802079
O           0.15169008912330   -0.55653518172141   -1.44808738488724
O          -2.12654740170897    0.04894970814510   -2.07358240068352
O          -0.21795419876495    1.13044326335060   -3.12957965573051
H          -0.97859878272912    1.56029986960780   -3.50802737621568
O          -0.57958651951586   -0.40894932262820    2.29049862580938
H          -1.10539281448579   -0.45599883153080    3.09041205628406
O           1.17797947944060   -2.00299141746591    0.84378979210385
H           0.61255063188329   -1.59617226684381    1.52056245367570
H           0.69332640722781   -1.89548308602090    0.01329126735516
O           0.72514237529738    1.82920460914276    1.37639748358336
H           1.74591822236066    1.00434660269578    0.57607976467167
H           0.11554404766746    1.95134143637111    0.61456067102631
H           0.28566004881061    1.14219616266762    1.91004382888867
O          -2.23554794851821   -1.02730491678217    0.31001956370651
H          -2.27263736269061   -0.53913564400651   -0.54013782993996
H          -2.18911049951701   -1.95498465725183    0.06743193152119
H          -1.21142962038878   -0.53455004274322    1.54267685551604
N           2.19002894681434    0.26086528940947   -0.07127257903450
H           3.08012623380050    0.53883550356676   -0.46634977319701
H           1.44958127338012    0.06502124088127   -0.81062387063968
H           2.22502869536740   -0.64456444201430    0.44636441823891
