    23
        -45.37055025  Gyration_radius:  2.32630919749 Dipole_moment: 2.933
 S          -1.85610094076915    0.06902999855622    0.75535245588695
O          -1.25097249669998    0.88399704451333   -0.29660338469115
O          -1.18525670203657   -1.20717407225378    0.88555456801498
O          -2.05516905498896    0.76629963525367    2.00292101468923
O          -3.32104522170757   -0.25135496906688    0.18915487234106
H          -3.81117938947105   -0.47053702300274    0.97558995670977
O           2.30641546165547   -0.11941071078714    0.64704424661947
H           3.08007123633891   -0.20941550653904    1.20546853253927
O           1.36063708550198    1.54541542950696   -1.36731849957091
H           0.52149822777886    1.71959747505223   -0.91824919964086
H           1.89655038087064    1.05715818521814   -0.72102550554681
O           0.86508847083346   -2.20057980473719   -0.41965731478440
H           0.32834044407305   -1.34064249915424   -1.57495191231179
H           1.55097101499309   -1.62154655416831   -0.03992939346910
H           0.08580330033508   -2.04161037407250    0.15857226255418
O           0.52346488751292    1.20327094676644    2.10224835936699
H           0.53159156563045    2.14698297795294    1.92608942382759
H          -0.42506455763534    0.95817877780761    2.15525683188848
H           1.60495844962600    0.27733462374749    1.21695458029167
N          -0.09349914909164   -0.52172470303482   -2.14125355997866
H           0.64309961579184    0.20806777978550   -2.25925487366595
H          -0.77093160213033   -0.04656918810809   -1.47145527649598
H          -0.52927104643589   -0.80476749924710   -3.01050817457252
