    23
        -45.37890628  Gyration_radius:  2.28847658657 Dipole_moment: 2.619
 S          -0.18322456838537    1.63795799090980   -0.24269796974205
O           0.13095393848360    0.95878167651757    1.00208944766926
O           0.96598024054375    1.89927849044190   -1.07484439093552
O          -1.24627472654219    0.93278344622736   -0.96408847155547
O          -0.77695708580370    3.05464299359334    0.14824167219138
H          -0.36103509745215    3.61727427207867   -0.49664338389730
O           2.45202141028683   -0.35905235167485    1.37060559306223
H           1.70736518283874    0.27029425227464    1.33441505510556
O          -2.95407000370868   -0.35387161744725    0.66071656958020
H          -2.41976501948352    0.17054530992850    0.03043923435702
H          -3.39498401638122    0.28132420709546    1.22642652917395
O          -0.64646752875390   -1.58146573867572    1.36076635649396
H          -0.31176230752765   -0.66598525320563    1.44338776189729
H          -1.61075619268744   -1.45236658256269    1.29908944578244
H           2.14349420295227   -1.10187756433911    1.89431214092456
O           2.29961845442629   -0.39868076464822   -1.31254070858678
H           0.95272028804979   -1.13877718115868   -1.31983769137455
H           1.97460352621779    0.52326084867229   -1.37516964557235
H           2.62217635582836   -0.47305388811811   -0.39059696442627
N          -0.08303021144956   -1.42435628170244   -1.20528369225741
H          -0.63573097279593   -0.54045771489524   -1.32019535556406
H          -0.25941690745345   -1.72037234780584   -0.19813024341127
H          -0.36545895121538   -2.13582622155398   -1.87046130890679
