    23
        -45.37890828  Gyration_radius:  2.28806249849 Dipole_moment: 2.672
 S          -1.29123937278011   -1.05014767941559   -0.02308979287081
O          -0.62208200854287   -2.28187916488219    0.31763237184749
O          -1.05002280173642    0.03359067972666    0.91271037203091
O          -1.00683397862216   -0.62384125547298   -1.39653166782737
O          -2.84479423541988   -1.35874848741997    0.03112121334346
H          -2.85316272832851   -2.30736249789371   -0.04441133916620
O           1.01162015672854   -0.00083193226824    2.64761005115111
H           0.15755727401868   -0.05841351246591    2.17950038521399
O          -1.44018859829058    1.99649264674249   -1.79224997311686
H          -2.36363499879445    2.19313643161824   -1.62957181713987
H          -1.35568630764278    1.02351745614498   -1.72909477889193
O           1.93771968692736   -1.68269610723264    0.76650002404821
H           1.82363785876103   -1.17624284761346    1.59714767184740
H           1.07252122810742   -2.12376665657836    0.63804324510249
H           1.84981309712362   -0.63232134517809   -0.35158759402852
O           0.43075450836598    2.13691976384770    0.15663383249178
H           1.25234434593854    0.92825934801289    2.64311316740694
H          -0.13180399040669    2.45840760789015   -0.57190703152624
H          -0.15151532112461    1.49483677132905    0.60996843400282
N           1.51612538721014    0.08635740384671   -1.08629423122272
H           2.17602638254333    0.19708742464018   -1.84832000292727
H           1.29715257572603    1.00990480771113   -0.60456556007883
H           0.58569186024249   -0.26225886511665   -1.42235697970221
