    23
        -45.37055027  Gyration_radius:  2.32675266717 Dipole_moment: 2.918
 S          -0.79228032654566   -1.78931491378176   -0.43685497860822
O          -1.29157290866777   -1.17555536558167    0.77552007014307
O          -0.18842043397326   -0.79828126668923   -1.32579687446772
O           0.02041617636873   -2.96165442241004   -0.21911465796533
O          -2.08071158033568   -2.28915598824144   -1.24899845854734
H          -2.26543698292949   -3.13695724559624   -0.85690726669442
O           1.49285113430146    1.09192466447546    1.52608488455180
H           2.07246448854817    1.22383686322060    2.27786603971332
O           1.47712837413352    1.57247491476710   -1.21091539488660
H           1.26209586841428    0.65644599950460   -1.43607107627148
H           1.65287755462855    1.56309339465174   -0.25574877788066
O          -1.24390558325461    1.32776634164979    1.56752860524147
H          -1.39406811841816    0.36212362723568    1.45876011197294
H          -0.28613201584870    1.39073940250349    1.73678596328756
H          -1.31929609383775    1.62539012121715    0.06113538134320
O           1.89662115254118   -1.41292791764898    0.74602697441777
H           1.17374734229732   -2.02881272636460    0.49952325148622
H           2.54004587013060   -1.48084185127423    0.03687532841240
H           1.56039550327494    0.13446567346800    1.29615522295500
N          -1.15837040858406    1.58405526308165   -1.00720992473118
H          -0.98325795497768    0.55525196570412   -1.21770799746554
H          -0.22857855815546    2.00978560871586   -1.21477913891546
H          -1.91661252911039    1.97614783739312   -1.55215730709179
