    23
        -45.37890791  Gyration_radius:  2.2880065621 Dipole_moment: 2.650
 S          -0.02938598017721   -1.50392391966120   -0.71286693318651
O           1.38085952186894   -1.80733204220403   -0.72736025032266
O          -0.54181150231105   -1.13388060892553    0.59452243603186
O          -0.39353545875357   -0.49988468796926   -1.71678638191490
O          -0.77442792892288   -2.83874132618100   -1.13167044532793
H          -0.07085680924897   -3.32541053758447   -1.54814059090527
O           1.07349418688323   -0.34133090295513    2.60051902248574
H           0.49889797665299   -0.81114457924649    1.96732100566240
O          -2.71543022282743    0.73263905019822   -1.16736561385023
H          -3.42175327202999    0.08544450965782   -1.15292603619505
H          -1.91551693075792    0.25313525132113   -1.46385859945097
O           2.62462243092219    0.22103039596628    0.47837991956236
H           2.30531756867998    0.06434245472313    1.39105660793454
H           2.38758845666886   -0.60075168191720    0.00078168754120
H           1.59393967367953    1.17744855662976   -0.14198921932896
O          -1.31584603982200    1.39172390325017    1.05255257892316
H           0.52381588248111    0.33437617117708    3.00355374921327
H          -2.03496892951792    1.44669206450236    0.39656604015428
H          -1.12560531651264    0.43266801391461    1.08244510900928
N           0.71983241875422    1.61647112854713   -0.60096249786582
H           0.33806044183923    0.88141481280331   -1.24462441309668
H           0.93108735468792    2.47745798997571   -1.09342012590730
H          -0.03837752222691    1.74755598399819    0.13427294083617
