    23
        -45.37055003  Gyration_radius:  2.32691975596 Dipole_moment: 2.920
 S          -1.68691205839181   -1.05055792672615   -0.27000885676052
O          -1.33540480165724    0.28239726268796   -0.75617456846068
O          -0.50524087422816   -1.84287811710695   -0.00161728633235
O          -2.65943199051538   -1.05388886346994    0.79606592057125
O          -2.40698707325924   -1.73374809167363   -1.52840120888471
H          -2.91328641152784   -2.43516326567031   -1.13045266111258
O           1.56867756086104    0.67022426656194    1.68414708018962
H           2.00723476481239    0.72421329255688    2.53460250513180
O           0.60961868848994    2.38145523082153   -0.28366312637237
H          -0.27200151679259    1.98307333538368   -0.29254217964915
H           1.06444627461363    1.97104678774199    0.47004605849235
O           2.04080181652367   -1.24308111153497   -0.23010992267452
H           2.09315066157973   -0.61803514163330    0.51584720056860
H           1.16885349942530   -1.67940029185663   -0.10225765301954
H           1.54884845733792   -0.33555757435984   -1.36908637208230
O          -1.01323654849615    0.38829137489116    2.23104219394468
H          -1.48728038906101    1.22297291340865    2.22705827647323
H          -1.60087071882399   -0.24524769628923    1.76634815587173
H           0.62380497922120    0.46168113637067    1.87891912636393
N           0.96289562722368    0.36183616278784   -1.95173159648522
H          -0.04382073776858    0.19147221246630   -1.65038109174972
H           1.09681834293584    0.27573288925089   -2.95184314968524
H           1.13932245749629    1.32316122539109   -1.58580684433901
