    23
        -45.37055025  Gyration_radius:  2.326061044 Dipole_moment: 2.935
 S          -1.68743856670311   -0.72597507832978   -0.80179817470238
O          -0.91751428093184    0.46001247468041   -1.17287632789396
O          -0.86081219489271   -1.69952467373672   -0.12009952275488
O          -2.93602272997017   -0.43724161185063   -0.13872940178035
O          -2.07638300143252   -1.37920399689166   -2.21308095304069
H          -2.82927838921327   -1.92150401956696   -1.99894263587869
O           1.02866184684449    0.51677447908205    2.10265027987117
H           1.16111824264912    0.57047611194391    3.05033450234953
O           1.16702625533600    2.17739119770772   -0.12046525759265
H           0.27412762448317    1.95704716731304   -0.42107305694526
H           1.24800219671688    1.76347215244037    0.75450160097782
O           1.68473891589429   -1.63163162140096    0.52043292350324
H           0.74703954270254   -1.87632340716615    0.35389332168215
H           1.80233561170780   -0.76367058004757   -0.74317745084992
H           1.62173000440389   -0.95775974515714    1.22168334786910
O          -1.58444565996514    0.79981097487796    1.73082281189562
H           0.05126935605142    0.51554677220844    1.96491513937654
H          -1.82986218356234    1.70594233898517    1.52956907618398
H          -2.10912449368590    0.24676950082881    1.11329102583987
N           1.60577017315606   -0.02757291079708   -1.51027517120416
H           2.03952407859291   -0.23680590717608   -2.40117729539943
H           1.85516007160555    0.91288961471932   -1.13273974496820
H           0.54437757021323    0.03108074733704   -1.56765903653918
