    23
        -45.37055030  Gyration_radius:  2.32650152007 Dipole_moment: 2.925
 S          -1.03587912182251   -0.83607959181600   -1.49926334027074
O          -0.73766031641174    0.57307248015041   -1.24982959500790
O          -0.06429793652856   -1.70123721329218   -0.86426458271442
O          -2.40962542430140   -1.20264275584799   -1.25253432053180
O          -0.81272834978827   -0.99564651670654   -3.07849685178813
H          -1.31878862610343   -1.77438226572129   -3.28851557038814
O           0.24603710321944   -0.03390185899769    2.38523892405130
H           0.13393836764764   -0.30684723250956    3.29710534173031
O           0.19894121002725    2.30185753075972    0.88040299788043
H          -0.44123724392304    1.95542998509826    0.24296102308005
H           0.24192023888911    1.63344070497886    1.58374656469124
O           2.03309409458166   -1.12473615780333    0.60629180830501
H           1.33212787689302   -1.55521411448608    0.06745492775727
H           2.07395722940009    0.14827005119564   -0.25410133841540
H           1.55405458943802   -0.81726927252522    1.39739158588805
O          -2.11105660918257   -0.42444771167720    1.22839285656098
H          -0.59341732160009   -0.27387372318441    1.92493987157486
H          -2.65155200892074    0.36874981989302    1.21240957734137
H          -2.22145010503292   -0.83061082470706    0.34210189380327
N           1.77689213176818    1.02512758476919   -0.81277103762953
H           1.54035079742996    1.78122428919855   -0.13346965433762
H           0.82179244303290    0.78220068741114   -1.21525989255395
H           2.44458699128611    1.30751611582019   -1.51993117902764
