    23
        -45.37055024  Gyration_radius:  2.32677354136 Dipole_moment: 2.927
 S          -1.69552347907290   -0.55158359326507   -0.91850498239230
O          -0.43589003842877   -0.08534319314250   -1.49550126608049
O          -1.49298299455952   -1.12674929186360    0.39451749593262
O          -2.76947116761587    0.40979146474371   -0.98745788728412
O          -2.12425522750546   -1.76288481329491   -1.87648345920546
H          -3.06110928451034   -1.83594928227969   -1.72290223976227
O           0.82905480176183    1.33897392314195    1.80894943141008
H           0.83115937888829    1.89848881593987    2.58705833585322
O           2.00916082136728    1.25631002338872   -0.70537989774030
H           1.16581238672152    1.16154205292957   -1.17007693281116
H           1.76965584703979    1.43299608747861    0.21916236808956
O           0.69519169200510   -1.40494073631379    1.81930620839968
H          -0.21785697379143   -1.42750897298368    1.45500695844816
H           1.36992911502054   -1.52097535409352    0.44276890447681
H           0.83180334501617   -0.46348427206990    2.03121999780706
O          -1.30507998048915    2.06802970166163    0.40997467833193
H          -1.92172069472794    1.43251451005542   -0.01278694323175
H          -0.01666523417594    1.53224545116980    1.33799604517904
H          -1.09533535169063    2.70945686884142   -0.27280867226332
N           1.63412035128882   -1.35770317470453   -0.59287489289540
H           0.72863703751945   -1.05069364474404   -1.06098375067475
H           2.05840388751798   -2.16127133838030   -1.03996075475257
H           2.21296177242482   -0.49126124221138   -0.65023875483441
