    23
        -45.37055031  Gyration_radius:  2.3264804522 Dipole_moment: 2.922
 S           1.65114464967513   -0.88273696567171   -0.71623245800151
O           1.27876901182478   -1.27247487122009    0.62734650945935
O           0.51689148813730   -0.30851011717125   -1.43789301520547
O           2.86012157779382   -0.09893967929322   -0.79514673283680
O           1.95361906419623   -2.24279197578763   -1.50876064953016
H           2.85892410662802   -2.42749193343553   -1.27882061482115
O          -0.73741562719481    1.63262076625514    1.59359332483539
H          -0.70604673009834    2.26698735595024    2.31130786601613
O          -1.74840112714968    1.44378531736668   -0.98821522235886
H          -1.54734755394018    1.68506891497561   -0.06918719421642
H          -0.89950511147507    1.18056780883722   -1.37059924456977
O          -1.01833952214752   -1.08461999120998    1.88503164080127
H          -1.60888754836652   -1.25392775850746    0.47600779092580
H          -0.09623778747285   -1.27510911044421    1.60141226203405
H          -1.02708160271462   -0.11585409449875    1.99141679756315
O           1.57134652479673    1.89335543435474    0.31004684750287
H           0.15696764199338    1.65043875439055    1.17634538806236
H           2.11150194001713    1.13397456242400    0.00337901799557
H           1.50890208454123    2.48134828685208   -0.44624094828985
N          -1.77579659926932   -1.16923033104494   -0.58895258307999
H          -2.21452784621526   -0.24173269362193   -0.77876090362213
H          -2.28340213351217   -1.94918759517872   -0.98847307547909
H          -0.80519890004891   -1.04554009432291   -1.00860480318567
