    23
        -45.37890697  Gyration_radius:  2.28836758187 Dipole_moment: 2.631
 S          -1.44197277699836    0.60774365482859   -0.57006321196092
O          -0.66910170487726   -0.49355954036417   -1.11687712143166
O          -2.32062339614522    0.22931100970772    0.50978658591863
O          -0.56727980260196    1.72771665652318   -0.21142471131293
O          -2.37649597143661    1.13231749761225   -1.73784567324471
H          -3.18914857978510    1.29622068699594   -1.27063159453471
O          -0.32004726541131   -2.80582168021021    0.22121238596977
H          -0.59632344307015   -2.07052797360065   -0.35756974722797
O           1.62609368020132    1.88912424508979   -1.75265122450590
H           1.36523836280008    2.03602840188946   -2.66270373041192
H           0.80291827141921    1.93302557860889   -1.22513204881941
O          -0.85494010738450   -1.14412671153186    2.26493387403634
H          -1.56229368751210   -0.66860101372988    1.78211382959690
H          -0.69901657370426   -1.94650909797640    1.72511188007363
H           0.32987366145788   -0.21841428800982    1.94684195814751
O           1.98004360076125   -0.58437488815051   -0.71472978689381
H           0.58448421833959   -3.01018286944669   -0.02623413976182
H           1.05395303518985   -0.71781984145343   -1.00010078297782
H           2.22749488993132    0.24122443431324   -1.17042542017289
N           1.01687999038990    0.48015390093530    1.49134690431536
H           1.58597480615373   -0.01933622585728    0.74333050084166
H           1.60404862792853    0.94779742896038    2.17322159053140
H           0.42024015479512    1.15861062466589    0.95848968371870
