    23
        -45.37055015  Gyration_radius:  2.32589517468 Dipole_moment: 2.942
 S          -1.84024004233472   -0.75115999217981   -0.25772971037897
O          -1.12424296233367    0.24539457345579   -1.05219936527776
O          -0.92393659939946   -1.60051239426755    0.47345331018009
O          -2.91523928713178   -0.21150304358671    0.53912989586931
O          -2.53275659625268   -1.68574567365988   -1.36066027793382
H          -3.24315705371071   -2.09741459814877   -0.87833939764442
O           1.45826437422757    0.90765829280842    1.67369238799662
H           1.78495104842657    1.16930693035624    2.53584581236694
O           1.18773751178243    1.98385310530687   -0.87408067407422
H           0.24536727756694    1.77266521827565   -0.93344472338138
H           1.43461145658421    1.78156011908714    0.04321724369111
O           1.69961210505245   -1.59709507888382    0.57040216295038
H           1.58332796091534   -1.06251517252938   -0.86594719791976
H           1.80699086773978   -0.77533145661426    1.08318457232947
H           0.73979311074230   -1.79430689911029    0.65358265208292
O          -1.16456609696197    1.31181178576069    1.75114631167185
H           0.47400737126844    0.95505115340008    1.73056006808492
H          -1.41513203094762    2.16272614986378    1.38380873058239
H          -1.82398507994891    0.67515620737465    1.40170952579479
N           1.25747779305918   -0.51298187422416   -1.73837219995267
H           0.20967802459389   -0.38241716541639   -1.60361509657947
H           1.49118696381561   -0.96016951131969   -2.61645765333639
H           1.61024989311171    0.46596932454776   -1.65888635720826
