    23
        -45.37890830  Gyration_radius:  2.28812365902 Dipole_moment: 2.679
 S          -1.56547477582341   -0.29828744863135   -0.48052340805586
O          -1.00899527208349    0.95759539791841   -0.00991601215399
O          -1.35770860359519   -0.54403390514521   -1.88673624409044
O          -1.10793556211390   -1.41414183403717    0.35293611010954
O          -3.13399779874085   -0.20572143578708   -0.27282520447995
H          -3.45480985328576   -0.64949082599897   -1.05111594414007
O           0.86149112828597    2.30977972966176   -1.40053375564612
H           0.05401385966120    1.95006232161725   -0.98767493189574
O          -0.63088525921013   -0.69658374284082    2.89599070063061
H          -0.87710923522912   -1.03105762661624    2.00976968205708
H          -1.44173159116951   -0.37525290270623    3.29240847315184
O           1.11184529160215    0.94054426933189    1.63044293943121
H           1.39783503101229    2.64759994266039   -0.67985533857557
H           0.33410533427715    1.16301603393995    1.08054869720368
H           0.71348520397758    0.46179913193185    2.38057406929116
O           1.23880280846743   -0.16960908750189   -2.36791778700887
H           0.28100325723583   -0.36887508655044   -2.41860735291974
H           1.27139404390146    0.80052766440186   -2.23662901147209
H           1.54505900416293   -0.76617412433662   -0.98512906790800
N           1.49531558569766   -1.11780401805703    0.03533847927763
H           0.51418617070473   -1.46386604854081    0.16885523307115
H           1.57962557563440   -0.29058197133189    0.69972168446080
H           2.18048566656497   -1.83944445338406    0.23087796969828
