    23
        -45.37055031  Gyration_radius:  2.32656739268 Dipole_moment: 2.920
 S          -1.06096309730488   -1.69064066930696    0.19012902408156
O          -1.35995408806108   -0.48891881624230   -0.58675518712589
O           0.36099521619026   -1.82604826025506    0.42543932537851
O          -1.87696667756411   -1.85097666217336    1.36932120560870
O          -1.46759665047827   -2.88776932661593   -0.79521907750720
H          -1.60566155166399   -3.61817332354661   -0.20020009188552
O           1.19772701737416    1.64109388011623    1.27474218273034
H           1.61043981051855    2.07068927956950    2.02554853671175
O          -0.51800373189235    2.27651723503539   -0.81732460811413
H           0.10959194159232    2.28544508984424   -0.07616248013266
H          -1.13166934265005    1.55537087962816   -0.61868581214780
O           2.36636152429341   -0.29014903453185   -0.29129988226931
H           2.17605580861796    0.45617386228659    0.30590935637177
H           1.78451091894905   -1.00738850996606    0.04623312564201
H           1.46575400766558    0.02999378578608   -1.49522012925876
O          -0.96688735163217    0.44426674498024    2.23878547199887
H           0.45230534642593    1.10902308017633    1.64272551300622
H          -1.75903559060467    0.97734576968223    2.13895802402224
H          -1.23676475073894   -0.46780281191396    1.99846018196960
N           0.60291775040702    0.25850282630760   -2.10546741195773
H          -0.20848137739883   -0.24011415927166   -1.62961145752472
H           0.70890946238707    0.00147854219215   -3.07931231206220
H           0.35641543556774    1.26208060821879   -1.96099350753584
