    23
        -45.37055027  Gyration_radius:  2.32624253668 Dipole_moment: 2.932
 S          -1.49680877105226    1.29524159241762   -0.31548304455075
O          -0.10186750251313    1.36448197374250   -0.74720971015247
O          -1.90651813823057   -0.07165201819890   -0.07162257139680
O          -1.83428237065466    2.21534971404771    0.74351072458331
O          -2.31516984830062    1.78429571223592   -1.60415753342943
H          -3.14873414360669    2.06087173215121   -1.23613859834286
O           1.04212654915909   -1.30960472534584    1.71672291745023
H           1.18922636733058   -1.71933410072591    2.57055817331497
O           2.46224863684489    0.13480028862486   -0.18587920219840
H           1.81683986699679    0.85510914413421   -0.21420856492020
H           2.17916577519945   -0.42889494507488    0.55262476260096
O          -0.01779251154973    1.06754536987128    2.23849664259145
H          -0.78151582155416    1.44133558751424    1.74911517891343
H           0.55343329022028   -0.47144242108910    1.89842656063754
H           0.63872823302424    1.76777392306217    2.25593328814334
O          -0.56271868377196   -2.31840484557102   -0.27174047372561
H           0.19783235900953   -1.56660810636484   -1.37601296227815
H           0.01995264361279   -2.18728021963299    0.49846922157368
H          -1.24532098370849   -1.61894479829447   -0.16337028396741
N           0.70891830511636   -0.79328507193686   -1.93265947492046
H           0.23295531395325    0.11323833852195   -1.64123064015019
H           0.70512651107514   -0.93779361760965   -2.93503964211101
H           1.66417492340326   -0.67679851647373   -1.52910473766625
