    23
        -45.37890748  Gyration_radius:  2.28823817916 Dipole_moment: 2.640
 S          -1.23236053122649   -0.75015641336731   -0.83135020501462
O          -1.08586538116509   -2.09909029374546   -0.34129914999675
O          -1.35149681067883    0.24979788546862    0.21507063812965
O          -0.17769687006053   -0.38448010292738   -1.78116639020775
O          -2.59164572940677   -0.72019003814856   -1.64601096512710
H          -2.73857180251042   -1.64720133034731   -1.80251964771197
O          -0.60546984213623   -0.23546026748011    2.75821609058500
H          -1.06295599940459   -0.10568305775350    1.90629594181986
O           0.14286652859796    2.27055581037811   -2.02564224296930
H           0.00625629074484    1.30168932687214   -2.04570878739739
H          -0.66712493448288    2.65896719772351   -2.35869936137676
O           0.87930503697837   -2.06299869434611    1.46201123028924
H           0.42379606030432   -1.54992523742654    2.16117113119755
H           0.16082902357492   -2.30773922330277    0.84272723194116
H           1.59978698454671   -1.00985078946051    0.60550163981229
O           0.64352623994870    1.99454620691712    0.61893372677712
H          -0.19328777165580    1.48800032676641    0.61278628488385
H          -0.24054094238481    0.62028656881563    2.99416856156398
H           0.63379252598879    2.43431510991986   -0.25112509668343
N           1.85096362343812   -0.23104379895133   -0.10007300678035
H           1.57146971213909    0.71429071772306    0.30115664481535
H           1.20831131850328   -0.37050368978845   -0.91724504461252
H           2.82611327035667   -0.25812621355200   -0.37719923392462
