    23
        -45.37055023  Gyration_radius:  2.32669778384 Dipole_moment: 2.919
 S           1.54687759031913   -0.56634590185480    1.14325805916544
O           0.59581532899830    0.31465633289464    1.78753720246785
O           0.95520657598229   -1.23333770722611   -0.01507541393623
O           2.83397033169464    0.03359398782628    0.88664598164299
O           1.81535029566543   -1.76503254286250    2.17295110305516
H           2.48490411889090   -1.40759075270709    2.74795427328289
O          -0.90758754382161    1.89067008417893   -1.16356690005570
H          -1.01618040194418    2.79391425736292   -1.46503937511842
O          -0.83035225664063   -0.67426867131889   -2.22972087194633
H          -0.95823985839085    0.27347475375470   -2.06006385921353
H           0.01454058329547   -0.89276224511938   -1.81188922495754
O          -1.89941133004275    0.86671832387132    1.18531798488578
H          -1.01135203679539    0.78384747857082    1.59951122567281
H          -1.72557551870140    1.38339178900299    0.37744327014053
H          -1.90888225276887   -0.57245017101841    0.64541358821959
O           1.71217852159105    1.51912832677998   -0.95282227622824
H           0.05642231540874    1.77862958033568   -0.98365120794847
H           2.13775563193049    1.06344828583518   -0.19519678815184
H           2.09475852818645    1.11816742789120   -1.73662287162599
N          -1.61805707932064   -1.49227985032972    0.15703199660566
H          -2.09371983524401   -2.31340645405347    0.51075654394823
H          -0.56106262540510   -1.54102462936714    0.27336063444494
H          -1.71735907288801   -1.36114168244842   -0.87353311434756
