    23
        -45.37055018  Gyration_radius:  2.32613865713 Dipole_moment: 2.937
 S          -0.60134462281461   -0.86480173911925    1.70567043235526
O           0.49162878400686    0.07450757940428    1.84344645858931
O          -1.34227249081226   -0.64225118419240    0.46535139369254
O          -0.23536156816825   -2.24121875000288    1.93717680255415
O          -1.65986360301548   -0.48934812863287    2.84935233261673
H          -1.31712169494982   -0.93841966529081    3.61591105902207
O           1.80747761095006    0.02701384000235   -1.57624098088966
H           2.66175945900019   -0.15966142487277   -1.96851438662177
O          -0.87149191103414    0.03618355354412   -2.31381618351840
H          -1.14262093841359   -0.53112967842710   -1.57846174445833
H           0.09938519881463    0.03888293201554   -2.28575407309830
O           1.10035321501816   -2.19872442834565   -0.31380845717752
H           1.58747673111873   -0.75753482947012   -1.01920232995670
H           0.70934180473495   -2.21344249676065    0.58577236245715
H           0.53070533289850   -2.75857826354504   -0.84649085757766
O           1.29129414868830    2.00759530777246    0.25692893270955
H           1.14743211719517    1.37425902505258    0.99529251605839
H           1.65346239070504    1.44807118605502   -0.45409093487209
H          -0.19650388399902    2.08091186777559   -0.12287607602565
N          -1.21005125537247    1.80462383710704   -0.37873860244140
H          -1.38860508452124    0.89879370655273    0.15144292157808
H          -1.22025769777586    1.48116877428520   -1.37084878223087
H          -1.89482206225238    2.52309897908961   -0.17750180276346
