    23
        -45.37364221  Gyration_radius:  2.26184613919 Dipole_moment: 5.694
 S          -0.85005666042806   -0.24666587947815   -1.57141905559055
O          -1.13510413780627    1.17048965496744   -1.52782896900863
O           0.58027923858200   -0.48724590409936   -1.81860997276699
O          -1.32592014045346   -1.00154505956099   -0.43870988012711
O          -1.60839686384779   -0.81308567090785   -2.84250373645203
H          -1.50149067229751   -0.11423870640416   -3.48020605186063
O           0.06399169948518    0.99395164123279    2.17385757102320
H          -0.84783554845757    1.21651524284652    1.88606389059563
O          -2.28421043155572    1.28284516905331    0.88876756916712
H          -1.92383984781141    1.40417381781486   -0.00978874770301
H          -2.60832755627528    0.37783510622731    0.89160440045439
O           0.05902887511028   -1.57393175960206    1.75870609472966
H          -0.60187401893613   -1.55357137110518    1.03583036725507
H           1.24729662341547   -1.48366638885030    0.96766461803506
H           0.03042611071179   -0.64512499186848    2.12857435336255
O           1.35776363749967    1.55315527162033   -0.22743968246634
H           1.01152499387675    0.94482823145240   -0.90471016228054
H           0.93777583218966    2.39474258054700   -0.42053147985980
H           0.62870855530296    1.28003040562018    1.43641859087326
N           2.04496766010840   -1.25162952189849    0.20838817000002
H           2.71987323038684   -1.99957584480175    0.09460765395573
H           2.50092418739528   -0.37568207268808    0.45852841330139
H           1.50449525380783   -1.07260397008142   -0.68726395463685
