    23
        -45.37364228  Gyration_radius:  2.26194831091 Dipole_moment: 5.687
 S          -0.77327750063566   -0.02204116182728   -1.62968618203450
O          -1.81050251773930    0.79598034193657   -1.04104521181249
O           0.48084938686382    0.73571222014515   -1.76305399286910
O          -0.55749008902470   -1.29358048707400   -0.98468527809646
O          -1.24463733915264   -0.33990345414356   -3.10890972223713
H          -1.65531156046700    0.47560906605424   -3.37871931928811
O          -0.19979854073723   -0.15060835965259    2.37843315685102
H          -1.10444490725141   -0.40190754627656    2.09170317353813
O          -2.44611757671621   -0.77565865176871    1.03223058455604
H          -2.18886872657007   -1.60428281015875    0.61841360669487
H          -2.35662524039083   -0.11528936315277    0.31950108532266
O           1.20827393303795   -1.79738310171750    0.93889483468740
H           0.55806855414958   -1.86816900936319    0.20940309505353
H           1.99820161640464   -0.72393009080732    0.42042687561101
H           0.70656269738011   -1.30945653363582    1.65335559174436
O           0.16832225236975    1.97440010912152    0.61739691333549
H          -0.68212169332019    2.40381241658843    0.73703622167067
H          -0.01688720918860    0.67952052224955    1.90731245902263
H           0.14044482001473    1.62222675328947   -0.29023824056367
N           2.39674041835269    0.21156066589282   -0.06224050544028
H           2.29840859873556    0.99115087044853    0.58606248846245
H           1.72718537214729    0.39278759461312   -0.86549628800321
H           3.35302525184909    0.11944999923844   -0.38609534618964
