    23
        -45.37890608  Gyration_radius:  2.28871255747 Dipole_moment: 2.628
 S           1.55751376208149   -0.16344907352274    0.56875630560882
O           2.21497199234852   -0.62401689362134   -0.63005787865089
O           0.80582886500865    1.06705420590968    0.39489689797699
O           0.72099597470963   -1.19982047709923    1.18036033725381
O           2.70936409546758    0.14897056704581    1.61181956171092
H           3.44549018366698   -0.31240936440869    1.22355252055530
O           0.07298059819624    1.96673777313740   -2.03636384847907
H           0.49354746660822    1.77093651370231   -1.17797972389613
O          -1.17834154194213   -0.21491443304580    2.80327170081166
H          -0.44924047874962   -0.63027778789677    2.29955348718088
H          -0.76591472533215    0.24473206311999    3.53557349063829
O          -1.87246349403885    1.01066065368144    0.49311426271856
H          -0.92432159198125    1.24923004279335    0.46007504703751
H          -0.79075278612095    2.33045253709928   -1.82938844949509
H          -1.98186862875310    0.69292987105183    1.40823722752417
O           0.38452351384017   -0.64891665887198   -2.57022173745517
H           0.26067922153792    0.31841422113510   -2.66222434536207
H           1.19472411740344   -0.73221861929858   -2.02599882346131
H          -0.65951189250764   -1.08243582674452   -1.52896517935912
N          -1.20838333576053   -1.28006950117349   -0.61953229652871
H          -0.48402436563276   -1.47899530041701    0.11234401712187
H          -1.86389376552961   -2.04719810509054   -0.72080217371743
H          -1.68190318452387   -0.38539640748788   -0.29002038973452
