    23
        -45.37364165  Gyration_radius:  2.26180931438 Dipole_moment: 5.718
 S           0.38678698099344    1.28125222333064   -1.20886302969688
O           1.45748338241086    0.41118137591000   -1.64253376033204
O          -0.92387442624804    0.72563669080095   -1.58132787476550
O           0.42784516388690    1.65452423470126    0.18330428175772
O           0.53813456522631    2.62199615317332   -2.03988464143490
H           0.79167376173559    2.30861124026185   -2.90241358116061
O           0.74285272616321   -1.59801212636930    1.61549192537338
H           1.57722564465122   -1.11933672975851    1.41914052464411
O           2.67263651416005    0.05008700888736    0.71659193443846
H           2.37178046501616    0.10577590959683   -0.20979466858780
H           2.39649379079621    0.88548171728268    1.10372993760117
O          -0.81346877561508    0.40893586122198    2.17920030436008
H          -0.34066208514823    1.05810180217925    1.61826081778773
H          -1.78522868892951   -0.03309964922072    1.22630104876695
H          -0.20545053511585   -0.38503120899789    2.18189074418358
O          -0.18914172192672   -1.80910432560623   -1.00009067696160
H           0.62582727630988   -2.09820030995510   -1.41735399654217
H           0.39062538930942   -1.84120833814780    0.74298082320029
H          -0.33357948746417   -0.90806497742167   -1.34047657283208
N          -2.35670167783389   -0.36368117836530    0.31527213693758
H          -1.90269155147689    0.16996706940321   -0.48203843878030
H          -3.35073075509208   -0.17325657642020    0.37445694884571
H          -2.17783595579406   -1.35255586650965    0.14815580318864
