    23
        -45.37364211  Gyration_radius:  2.26189613138 Dipole_moment: 5.705
 S           0.43375312090129   -1.57447558914150   -0.76629630525619
O          -0.21499425040562   -0.75936720223044   -1.80531754587555
O           1.81054433095850   -1.17242707273780   -0.58050924741420
O          -0.35643008243022   -1.62403196297606    0.43881438997501
O           0.47532973205628   -3.05098884743225   -1.34009983723760
H           1.21998117491177   -3.02609411032806   -1.93286611100059
O           0.37123941613900    1.63080760731184    1.70884953867209
H           0.95243714767109    0.89902838153330    2.00984984775240
O           1.73829426647612   -0.66357351875916    2.04787418138840
H           1.93633973201728   -0.83448855810917    1.10787704342581
H           1.02547544867461   -1.27505124544053    2.25288344882353
O           1.00379987977275    1.51516801822173   -1.00112479358888
H           1.95861245854442    1.45451758547707   -0.92029309309693
H           0.72947448645911    0.64272075703021   -1.33590653178876
H           0.61261860490112    1.76567495383529    0.77721310498965
O          -1.86741841733687    0.34063334721816    1.40438340154534
H          -1.09950492949599    0.90321012643676    1.71062177169950
H          -2.00259746593863    0.82363509768989    0.06413252389958
H          -1.45369379130511   -0.52561117206636    1.20895074616418
N          -1.88301160366417    1.09516976471081   -1.02113128338544
H          -1.29729001091568    1.92529785443934   -1.09626415446531
H          -2.76620189868490    1.22174894122859   -1.50259906430192
H          -1.32675735934156    0.28849683410945   -1.42904202093374
