    23
        -45.37364189  Gyration_radius:  2.26186230768 Dipole_moment: 5.712
 S           0.18913623542679   -0.50315678284503    1.72178937089398
O           1.31205995827988   -1.09702118455446    0.97923413693972
O           0.43660349175720    0.89432380344516    1.99991788788811
O          -1.07433735823468   -0.78588944581396    1.08708973080537
O           0.16357572722805   -1.23837158376273    3.12530081993000
H           0.85657691969875   -0.79783026005110    3.60716152294215
O          -0.86839630141061    1.53676654369540   -1.61305528895099
H          -1.30336565805525    1.85220427007336   -0.79139761030829
O          -1.77125455506799    1.92984461649825    0.89282933133643
H          -0.94441146797120    1.71115297358675    1.36237313087587
H          -2.32287833425289    1.15193287366493    1.01383262931659
O           1.66841286119097    1.10509880590516   -0.54728258413194
H           1.75658629590803    1.92620681763426   -0.05745737418264
H           1.59291594861374    0.41694691194684    0.13773097013751
H           0.07361378950121    1.47668241841456   -1.38200470659691
O          -1.50601194576306   -0.98431998278926   -1.53013276497286
H          -1.42532802355875   -0.00386834826347   -1.70936036333349
H          -0.13534610131685   -1.37058535346962   -1.67206691684901
H          -1.57380098468570   -1.03434286153318   -0.55414044514738
N           0.97368041564906   -1.53390100883896   -1.57637605742846
H           1.14852272921693   -1.51146626990577   -0.52970437784553
H           1.46549231216867   -0.73563427180731   -1.97477635060467
H           1.28795404567344   -2.40477267124771   -1.98950469072428
