    23
        -45.37364215  Gyration_radius:  2.26192893702 Dipole_moment: 5.701
 S           1.48190626922309    0.75551714557710   -0.69842398589241
O           1.40350468192761   -0.26827856458162   -1.71695561000166
O           0.39285668032116    1.73282275053496   -0.85220126979916
O           1.56733767924636    0.26588298992153    0.65510817815325
O           2.82152439627162    1.55560086529799   -0.97456315501042
H           2.85206997445252    1.59447132465894   -1.92538985995486
O          -1.21815032418650   -1.96452316967641    0.61181704911239
H          -0.34447234989780   -2.34430404017222    0.37441451001048
O           1.32927814390970   -2.42323451903267   -0.12849628235625
H           1.38003784827108   -1.75185946802608   -0.83471058244999
H           1.80894140741455   -2.02908789320484    0.60543459934423
O          -0.47676456537251   -0.13707234858657    2.30890997855463
H          -1.19073882114616    0.87113752671226    1.58637576790656
H          -0.81379680764773   -0.95286516438186    1.83900670684985
H           0.41122859101087    0.00185638508150    1.91920988370709
O          -1.42359519024522   -0.16101059747927   -1.50077475053801
H          -0.69182022625014    0.47684069509879   -1.42253940617156
H          -1.15865804149147   -0.74766360662931   -2.21321971616026
H          -1.45263089046551   -1.40210140130791   -0.14519761055050
N          -1.60681664391963    1.58834429774461    0.82601080821847
H          -2.30151218879730    1.10741559201341    0.25683971367191
H          -0.78223446758368    1.79904657661176    0.19175161559928
H          -1.98749515501224    2.43306463372658    1.23759340788998
