    23
        -45.37364150  Gyration_radius:  2.26187245491 Dipole_moment: 5.719
 S          -0.13393327535123   -0.81160650830787    1.60533933199940
O          -0.93974531978066    0.32228316607020    2.00096785373466
O          -0.85499956703342   -1.65599919820957    0.63987592541793
O           1.19141515513071   -0.48688416137896    1.13936282442927
O           0.04991117477088   -1.70202386621354    2.90331184867924
H          -0.80459279353507   -1.64733398994781    3.31972668533299
O           0.33350729090086    1.99268702508603   -1.27891962553198
H           0.52926613819545    2.31021896421285   -0.37075463876370
O           0.76936210901229    2.28271960475240    1.36177084509342
H           1.57031669806017    1.76340077451081    1.47579960604819
H           0.05696521867042    1.69402025034464    1.67446836777826
O          -1.91153691604933    0.46460947787119   -0.66109203729730
H          -1.63319272185597   -0.24583439855959   -0.05589015418641
H          -2.36306240947494    1.09879272746287   -0.09904746564753
H          -0.52459274432694    1.54341568551322   -1.19990594329902
O           1.90888463969451   -0.07480595597974   -1.38888175050329
H           0.82375567285630   -0.92298797104474   -1.77775535556130
H           1.46257364299492    0.81680825387916   -1.46513148068821
H           1.89968000017797   -0.25448560660530   -0.42595797234856
N          -0.13304326600019   -1.50773909212124   -1.86879064173008
H          -0.39975663674137   -1.72458202500822   -0.86457536220754
H          -0.03566995345002   -2.35265580406946   -2.42060437305247
H          -0.86151214697247   -0.90201735221423   -2.24331649768638
