    23
        -45.37364209  Gyration_radius:  2.26189873826 Dipole_moment: 5.704
 S          -1.68478305879770    0.64232825410164   -0.05322865755832
O          -0.83660681345163    1.71654767687571    0.48667594526605
O          -1.56364418253947    0.56370564370526   -1.49223104618868
O          -1.47519714843135   -0.60078225971768    0.64668553515996
O          -3.17801851207041    1.08146794835815    0.24400994763123
H          -3.35439842953384    1.71157501805058   -0.44765084339817
O           1.64625785604716   -1.53370901956502   -0.80900530829834
H           0.83557518792887   -1.86950318091016   -1.24937121718364
O          -0.84798588043390   -2.00838879667817   -1.70419313775875
H          -1.12889614227272   -1.07871201368650   -1.79822478229763
H          -1.28065834086429   -2.30438633835781   -0.89842317762241
O           0.82886722065105   -1.46120776277104    1.65996926654466
H          -0.11686238894425   -1.32411081160723    1.44436061291149
H           1.24210993298865   -1.67592385314751    0.77506602035566
H           1.22317554520720   -0.09127834667502    1.78566893520833
O           1.19159028985451    1.18360223394840   -1.21868215860916
H           0.94090543842608    1.14655475917024   -2.14478846814271
H           0.37153776822618    1.42398718543134   -0.75152390206945
H           1.65531153157669   -0.58267847499872   -1.00858412101219
N           1.37854053441394    1.01870429719673    1.68774826907359
H           2.06085484515714    1.19797630544209    0.95280582829533
H           1.64748502721451    1.46434502095444    2.55776952675072
H           0.44483968962112    1.37988653492778    1.33514692300515
