    23
        -45.37364233  Gyration_radius:  2.26193156971 Dipole_moment: 5.686
 S          -1.30451301758662    1.23939408152859    0.12850717691335
O          -0.81514820871342    1.27740005018455   -1.25850471171254
O          -2.20727670222065    0.12716640521531    0.32713635342425
O          -0.21986387454694    1.32317670997407    1.07506026998395
O          -2.17075693720405    2.55305193878519    0.31639451384951
H          -3.00198310001252    2.31574518748700   -0.08260522522435
O           1.01416864015649   -2.01446978489988    0.79444584925683
H           0.33977594792713   -1.85011640338010    1.48873124980214
O          -0.94961123322240   -1.06226083808058    2.37077972058191
H          -0.53781950940936   -0.26600971882538    2.71786886284027
H          -1.53683625565165   -0.73765902055667    1.66235781491136
O           2.21305572959416    0.29394492870450    0.76747603778127
H           1.43497607430109    0.81041242482027    1.06366229052240
H           1.92698621541330   -0.65562023241871    0.89686264361138
H           2.02657055629678    0.41308264804862   -0.64544323010377
O          -0.57324148803850   -1.40914378576863   -1.41174072323804
H          -1.35962047960628   -1.89775481648092   -1.15715004009509
H          -0.83395562224945   -0.47294420248717   -1.34720097667454
H           0.52205928636835   -1.95574355477656   -0.04154342004176
N           1.63596074403361    0.47991026716511   -1.69893842789721
H           0.68494711073071    0.93885262559796   -1.59268043586945
H           1.47229462698799   -0.46001383284082   -2.05598548948546
H           2.23983148667562    1.00959893302841   -2.31749012313088
