    23
        -45.37364232  Gyration_radius:  2.26196959867 Dipole_moment: 5.685
 S          -1.51986729757500    0.08300212193472   -0.96802609670494
O          -0.73120400334485   -1.03584286807864   -1.50748095535100
O          -2.20057219604371   -0.30419662903640    0.24779499668490
O          -0.73277581189464    1.28735217588967   -0.87118776817152
O          -2.65250351766031    0.36820779385303   -2.03916175318550
H          -3.29899796894217   -0.30333482338935   -1.84527646158976
O           1.17986701071914    0.46375308493304    2.02715097520534
H           0.34023381976992    0.95016527796707    2.17613936367261
O          -1.25480155784345    1.60290277823434    1.87298492564853
H          -1.70875628721682    0.87376855845670    1.40996747382313
H          -1.10768006225480    2.26075728416037    1.18767204209262
O           0.07799218114528   -1.84983390077616    0.93823017236517
H           0.90043528229435   -0.42837125299366    1.76150982614572
H          -0.63089071071727   -1.98024837490089    1.57260111177506
H          -0.37436854198616   -1.60700028002153    0.11056705942896
O           1.85940832555570    1.42572941761368   -0.29228669409829
H           1.99585717966359    0.10995096391548   -0.83637926047587
H           0.94535278033026    1.61490911580423   -0.58983857232383
H           1.74828980291582    1.19839329963342    0.67529539129883
N           1.86306667195583   -0.94974227204067   -1.19144725764033
H           1.98300932816927   -1.58454119579767   -0.40379640523348
H           2.47727116767107   -1.19506338125757   -1.95985024514416
H           0.84163439523542   -1.00071687413108   -1.47518185819183
