    23
        -45.37364222  Gyration_radius:  2.26189855051 Dipole_moment: 5.689
 S           1.79342180461628    0.17063507290279   -0.09126198180315
O           1.39702041035722   -0.74371976299831   -1.17375043254802
O           1.54547069719313    1.54658604905720   -0.46125992482196
O           1.23296350728901   -0.23254815338602    1.17469259622136
O           3.36555904050842    0.02330922880161    0.04341277175438
H           3.69007365642833    0.56666439779693   -0.66790104203819
O          -2.12255521070113    0.87630583768984    0.66746445875023
H          -1.50769469561519    1.51155844150503    1.09431457228419
O          -0.00715584428720    2.25409898659122    1.60291366059759
H           0.36028871644800    1.62641718165913    2.23148270083032
H           0.56217837592618    2.16461541501864    0.81559673024924
O          -0.81362724089798    0.68538713602253   -1.78237664043651
H          -1.82641697365727    0.83487853948347   -0.25728170905568
H          -0.65787816861177    1.62117534310159   -1.93074309715804
H           0.07137143681125    0.31115276360634   -1.62317994105147
O          -1.14323498408521   -1.36667079306203    1.54870438432593
H          -1.04391006775906   -1.88525458212012    0.21949668023542
H          -0.22535984310513   -1.03891351358718    1.64840244007541
H          -1.67032060565954   -0.53620923812641    1.36773193908600
N          -0.82445636866456   -2.08833428881343   -0.86555056934958
H           0.14598870891876   -1.68454882051066   -1.01265542189615
H          -1.46193584470918   -1.54355710591923   -1.44398198219236
H          -0.85979052678056   -3.07302811472445   -1.10427018208485
