    23
        -45.37890819  Gyration_radius:  2.28777113764 Dipole_moment: 2.682
 S          -1.04478311814565   -1.28698629203727   -0.14204048307647
O          -0.63588572771804   -0.86277010082309   -1.48451876905132
O          -0.21262934732529   -2.34625884182754    0.37396121794307
O          -1.16682017459344   -0.14378143109682    0.74460311924428
O          -2.49896228359746   -1.89807666084126   -0.29577558998692
H          -2.31190820779389   -2.83074099448421   -0.32343916949364
O           0.56608650814778    0.29712715686055    2.76066361719956
H          -0.17717132848333    0.05261572166123    2.17788143534849
O          -1.50419824720965    1.60080639303410   -2.10753347494525
H          -2.46196833641457    1.61249399452598   -2.08731594123187
H          -1.24235567985499    0.66784419152306   -1.97025717991567
O           2.08222709351478   -1.23170009720344    1.15138462064975
H           1.34886125840472   -1.84136480100802    0.92751334966520
H           1.96964216159216   -0.26124839671407   -0.03500246974032
H           1.74431804571657   -0.72879019040244    1.92097964056077
O          -0.01716274031273    2.18426053177512    0.07576930447337
H          -0.51108185258696    2.36040392901306   -0.74618926314720
H          -0.52853250180480    1.45554612115841    0.48105581409122
H           0.62052550256885    1.25485011677957    2.73048735469411
N           1.62287807490478    0.34874998457213   -0.85665745002206
H           1.15808450705345    1.22668649021002   -0.47464548719957
H           0.84085770083196   -0.19107471339824   -1.30102485003533
H           2.35997868310303    0.56140787871669   -1.51989937602761
