    23
        -45.37364208  Gyration_radius:  2.26191244509 Dipole_moment: 5.701
 S          -0.92170234926024   -0.22541497186379   -1.53419391323507
O          -0.29464580839927   -1.52682324589329   -1.60350425352357
O          -1.91135991381185   -0.17731608716591   -0.44649245462401
O          -0.01008487910007    0.88991798032502   -1.47097019427927
O          -1.74746478105603   -0.05792925109218   -2.87627001272686
H          -2.09975258768509   -0.93102924789620   -3.01800590498415
O           2.03776991762304   -0.22353125742045    1.23089300978833
H           2.33060025666809   -0.46609384464060    0.32577134006384
O           2.26360071344442   -0.76159258505725   -1.39743141377662
H           2.14251705122243    0.11338698461932   -1.77668927236145
H           1.39692720185829   -1.19436559415713   -1.51411421463074
O          -0.36681211830951   -1.62922016109061    1.23102534249768
H          -0.04539964441239   -2.45842533425213    0.86908074663027
H           1.25275834130090   -0.77429789310718    1.38834216581095
H          -0.93128814351275   -1.25722540880860    0.52997639268844
O           0.88695677620299    2.05853746688322    0.74373592671875
H          -0.31433795173900    1.62944497540123    1.39259999607514
H           1.49595304776790    1.30847887218574    1.00139932149319
H           0.64018363329048    1.84670378407726   -0.18034918554767
N          -1.24908566295410    1.10460159807759    1.73386702183335
H          -0.99436457548051    0.32903473906440    2.34333746614207
H          -1.64556252056177    0.67999567541610    0.84551342018488
H          -1.91540601291638    1.72316280646068    2.18247867948218
