    23
        -45.37364202  Gyration_radius:  2.2619685466 Dipole_moment: 5.703
 S          -1.08886121026151   -1.21232929766863    0.77371692904523
O           0.00457864551618   -1.46475491653301    1.68606359997782
O          -1.68266016726015    0.11109438006409    1.02014693044809
O          -0.77732548785408   -1.40211744094556   -0.62124929892838
O          -2.21809634340878   -2.26500682387392    1.13125934723684
H          -2.17507995595996   -2.30678566577240    2.08147327231454
O           2.16942132684249    0.60223598515669   -0.80644161889292
H           2.29513785614605   -0.35035333031447   -0.60492464403868
O           1.92440553951929   -1.98610219902444   -0.10699735705109
H           1.33763662491801   -1.85529967324261    0.66154479361364
H           1.33937693136202   -2.31064835193206   -0.79728810164091
O           0.71571801721882    1.27386354932716    1.47249353354098
H           1.26352582485204    0.83125107686276    2.12508218269584
H           1.77565561618676    0.97187330753517    0.00145473961054
H          -0.11336481078627    0.76305222701095    1.46003101765727
O           0.05124181114340    0.47649842447446   -2.31191906066828
H          -0.62803630827742    1.43567385083430   -1.49571447797473
H           0.97114441572211    0.54608507628973   -1.92610065750877
H          -0.30574826109116   -0.34144905935765   -1.90782019437941
N          -1.11533830978902    2.02394678290359   -0.66963654651424
H          -1.49845058066662    1.28116881922120   -0.01535827879144
H          -1.84548236316474    2.64635672678696   -0.99726858499013
H          -0.39939881091173    2.53174655220589   -0.15254751475953
