    23
        -45.37364223  Gyration_radius:  2.26185242415 Dipole_moment: 5.691
 S          -0.71923915318545   -1.63628104724326    0.24345031173736
O           0.32095111736781   -1.84006747314779    1.22729057547991
O          -1.71007135038171   -0.65912045827614    0.72105885788221
O          -0.25226428068819   -1.31210488513064   -1.08179597788162
O          -1.49431666057106   -3.01344213414819    0.12516007181680
H          -1.50929516667167   -3.32438966722868    1.02491755931908
O           1.93329942556768    1.38480146531746   -0.24880616792109
H           2.33176908835022    0.48818956742679   -0.28264631330444
O           2.44576128407478   -1.25775477605917   -0.29546846911039
H           1.78830298612388   -1.52754485472810    0.37310127638413
H           2.04573037285212   -1.50860702303610   -1.13283032189037
O           0.09146171400752    1.13356174925952   -2.06812516011700
H           0.90892692257182    1.33534939758854   -1.52826413863800
H          -0.02664288023690    0.16773174115633   -1.95349825335230
H          -0.91640993615673    1.58406731084505   -1.15959213192068
O           0.16484680075474    0.92369542427218    1.85128234542568
H           0.76764613309439    0.46919983792969    2.44459571913811
H           1.37991451728362    1.37522587344236    0.55011455007154
H          -0.46597956584636    0.23748444489444    1.56882835821668
N          -1.62945474494967    1.74559148414916   -0.30354350925575
H          -1.81472874684937    0.76800624978598    0.06550327619086
H          -2.48749028957730    2.21027950456778   -0.57866230520333
H          -1.15271760693470    2.25612825837156    0.43792982692808
