    23
        -45.37364171  Gyration_radius:  2.26186433447 Dipole_moment: 5.717
 S           1.42613193004056    0.17902480331106   -1.08964991795390
O           1.23005385683122   -1.26396232473165   -0.87897423700655
O           0.49029812739582    0.68893196837795   -2.06726211892746
O           1.45710908396348    0.89782061246356    0.15998153701189
O           2.86689551247406    0.32883932260601   -1.73217663929180
H           2.71576664499675    0.10286018283394   -2.64462584316923
O          -2.03469655904546    0.88468451922670    0.89065267241794
H          -1.69111911892987    1.65600789848536    0.38976095143839
O          -0.62319992177577    2.62998023405714   -0.59602400756191
H          -0.30106552200260    1.99669220739859   -1.26473003873044
H           0.13849317412477    2.78111617269112   -0.02944766788228
O          -1.46342279791367   -1.07369570137004   -1.00587140844903
H          -2.00175766942068    0.14875130747201    0.25688278669028
H          -1.80037831817840   -0.62022803590901   -1.78225346797780
H          -0.49810109939463   -1.09469823121782   -1.13300766274038
O           0.04926471623905    0.31489590588548    2.34045398607804
H          -0.82486181072649    0.62803049817467    1.96941076798616
H           0.02744605648339   -1.04581621979135    1.89687326025513
H           0.70721547034655    0.66720832671279    1.70596780812626
N           0.02711001433960   -2.01099293364052    1.31902697240553
H          -0.91300906287300   -2.19292307573537    0.97125184286984
H           0.38245031217367   -2.79728519429074    1.85134073957622
H           0.63337699087765   -1.80524223300707    0.47241967492476
