    23
        -45.37364189  Gyration_radius:  2.26191973938 Dipole_moment: 5.710
 S          -1.08335244642427    1.25298616036174   -0.71450063029464
O           0.28781062111307    1.59022065628076   -1.12803824287813
O          -1.61884260417197    0.18375848655272   -1.52780178142587
O          -1.17066392211503    1.04058309957856    0.70896833775932
O          -1.95754742367557    2.53547652383193   -1.03382632565255
H          -2.10579742931786    2.46183747684632   -1.97145659935444
O           0.30321975659596   -2.20498629435717    0.87432503701335
H          -0.67303044974624   -2.16755731247981    0.77721074602067
O          -2.26453929267072   -1.53332641140054    0.42346781423839
H          -2.11967698554284   -1.01321275696732   -0.38928733242788
H          -2.40485380201728   -0.87012362981472    1.10506502136518
O           0.70955215140297   -0.03564596239454    2.25227193336578
H           0.57694713821806   -0.96892354536276    1.91870811770561
H           1.67674127204091    0.42590101267308    1.30358884929394
H          -0.07360396930866    0.44357396285736    1.91062791531922
O           0.96220776480812   -0.99400216741106   -1.54628042743957
H           0.64474435982362   -1.91894619404841    0.01070692510670
H           0.36199482458574   -1.48124752146377   -2.11570862939310
H           0.60750092271545   -0.08708024171328   -1.53390281284416
N           2.24634247997390    0.76398087855207    0.39427369340253
H           1.51404869795372    1.24490450705299   -0.20495310139394
H           2.56302630601738   -0.05286851129499   -0.12564351765322
H           3.01777203957813    1.38469775411451    0.61218501018229
