    23
        -45.37364235  Gyration_radius:  2.26188269236 Dipole_moment: 5.686
 S           1.23946152995040   -0.43607732121586   -1.23576210421751
O           0.50555232336832    0.72632960892991   -1.76015356737903
O           2.21974556026947   -0.02765737739199   -0.25402569120807
O           0.34151258084287   -1.47932621045620   -0.80608178908222
O           2.05626368411598   -1.01950048606203   -2.46207845617124
H           2.81288189072976   -0.44311641693469   -2.50426435086768
O          -0.74620211591180   -0.03461201693207    2.27113607022626
H           0.03318087040670   -0.63001836337669    2.31427929078942
O           1.41797187695731   -1.56198226604653    1.78936253567860
H           1.84891487395768   -0.97213549468775    1.14250962165263
H           1.03503277514835   -2.26072818070910    1.25158832582346
O          -2.04972764608856   -1.13129136693767    0.30512479587495
H          -1.25899145120026   -1.49775248968967   -0.14236996447839
H          -1.69561403386258   -0.81649329389954    1.18587946185365
H          -2.12883100038178    0.11908454887923   -0.38524475525977
O           0.37994042569769    1.93269993013752    0.65416211556205
H          -0.41748658584934    0.76477560579900    1.82677044126087
H           1.22361357180858    2.01829535346455    1.10453015429508
H           0.59939037749279    1.52771314843942   -0.20399523526796
N          -1.93958337854615    1.09632589313721   -0.91024936129698
H          -2.67244159740976    1.34884828032416   -1.56371481296412
H          -1.01047117614057    0.94941903935228   -1.40172205759500
H          -1.79411334535045    1.82719989580905   -0.21568067723955
