    23
        -45.37364217  Gyration_radius:  2.2619767849 Dipole_moment: 5.698
 S           1.55299416956438   -0.51605953802386   -0.75926288114324
O           0.49550141559967   -0.74346244730188   -1.75661742183712
O           1.92539449753975    0.88063790908448   -0.71179950043458
O           1.21534993452150   -1.10211594941343    0.51416343447268
O           2.82438374241376   -1.29697592909149   -1.29292731980145
H           3.17604391953883   -0.70413302245160   -1.94974703189655
O          -1.16275910000449    1.31703806201309    1.62231437896437
H          -0.22889379831458    1.46142799333827    1.88856300667125
O           1.51545160200812    1.32727382236661    1.89683448653736
H           1.74109046161286    1.31842845898033    0.94757511778950
H           1.67590270982632    0.42438402508048    2.18523974299741
O          -1.22383294467420   -1.28341903776403    1.55943872272683
H          -1.30079245186388   -0.31088621930319    1.77870424454250
H          -1.73889033296565   -1.27270135010252    0.22417879362733
H          -0.27340975303079   -1.39712796352584    1.35085850922310
O          -0.80138618379679    1.54417434986784   -1.13027540444845
H          -0.20419574658864    0.82915281769199   -1.41411962117255
H          -1.17589779812505    1.50588830867508    0.66916589107822
H          -0.25454813476210    2.33332781833161   -1.13634343926233
N          -1.93504762680911   -1.13085086674412   -0.87448865255733
H          -0.96686303969629   -1.11242319135829   -1.30913936406131
H          -2.34397058294469   -0.21013416301353   -1.02576386904029
H          -2.51162498905537   -1.86144389728089   -1.27655184300367
