    23
        -45.37364217  Gyration_radius:  2.26194478316 Dipole_moment: 5.702
 S          -1.39087103744962   -0.02585880037079   -1.14839432561635
O          -0.78686220675095    1.14114648834002   -1.75236057676707
O          -0.59115283177928   -1.23071859856132   -1.41984019327834
O          -1.69728172975561    0.10146662105891    0.25488055157091
O          -2.77161661576473   -0.24800645495343   -1.89373007173167
H          -2.56105683158637   -0.03121783510742   -2.79657036458021
O           1.48370969249816    1.23496220264308    1.41097281967311
H           0.83215358836967    1.92625758529139    1.16306498501306
O          -0.57291384799043    2.67202869436386    0.43469139030282
H          -1.31284113706259    2.28264870178243    0.90902031941858
H          -0.61057381958079    2.25765508166998   -0.44792506308536
O          -0.12401197001678   -0.61876865596748    2.27470333492890
H           0.46538575531013   -1.58558155283837    1.40080715878005
H           0.52447556284997    0.13347775883288    2.15745789432590
H          -0.88376665091204   -0.35629381866727    1.71462575153645
O           1.75775922301280    0.06647892973302   -1.10167098862460
H           1.75302647561965    0.83971025193406    0.56496833381559
H           0.89214334987561   -0.29799531688006   -1.35940548767464
H           1.84690321885680    0.86937617736369   -1.62064082853727
N           0.86421720699769   -2.18166432394936    0.53346392402255
H           0.20985612754491   -1.94171042946415   -0.26692066567371
H           0.88848500500766   -3.17969256667461    0.71014781785385
H           1.78483348270603   -1.82770011963765    0.27865426438533
