    23
        -45.37364207  Gyration_radius:  2.26190185625 Dipole_moment: 5.702
 S          -0.35187688159043   -1.17227295854070   -1.32523177853758
O          -1.71207884629643   -0.68528620333011   -1.26001059413406
O           0.54482538743581   -0.15045505232247   -1.88804979405185
O           0.16512869497344   -1.70908176474743   -0.09082407045227
O          -0.35594586576841   -2.36426629911602   -2.36940664379021
H          -0.95660135400190   -2.05524437268667   -3.04038743939615
O          -0.62796461810480    1.01825174619090    2.07031118350408
H          -1.29957583624589    0.30630176925913    1.99287456562085
O          -2.16280103335495   -1.07331669671197    1.35124270794834
H          -1.54482481125402   -1.80197257520914    1.45739743099427
H          -2.16843105640788   -0.90322695461723    0.39046598202631
O           1.54841815943636   -0.36945983933218    1.74452014725619
H           0.76630296356586    0.15340006639622    2.08348918400423
H           1.13684325068468   -1.06671161644562    1.19309261537557
H           1.98786621829535    0.50277376462096    0.69846710623904
O          -0.68493823138819    1.87066088056194   -0.58062329396162
H          -0.66098676853479    1.47780631419732    1.21467924140488
H          -0.39654977237976    1.12801171579097   -1.14079903381089
H          -1.63744785307435    1.90597350601296   -0.69645551955915
N           2.11328135775580    1.12533991286359   -0.23020323024707
H           1.60400968700592    2.00051190037285   -0.11820140844720
H           1.61002209888254    0.57094298445884   -0.98255295714738
H           3.08332510042713    1.29131979235259   -0.47379440083886
