    23
        -45.37890823  Gyration_radius:  2.28803649587 Dipole_moment: 2.663
 S          -0.61759244303977   -1.12503175548367   -1.05834891644226
O           0.24275776270862   -2.24597108345363   -0.76803615457692
O          -1.26799579583320   -0.55890834011508    0.10989694924867
O           0.06773351484383   -0.08250488777757   -1.82796836075076
O          -1.76998985384427   -1.68020036276054   -1.99431720462814
H          -1.37377590526473   -2.47701916827254   -2.33148038303779
O          -0.38656427687902   -1.03325921189287    2.61151332715517
H          -0.83703966280737   -1.01289672433346    1.74629437491045
O          -1.12274670241274    2.31619577476562   -1.62760838926064
H          -2.01517969546923    2.25581334812391   -1.97071112203884
H          -0.70374263413123    1.45079538049371   -1.81029132938679
O           1.86238459603617   -1.49452172806161    1.21337306438356
H           1.39730873963648   -1.96776268729351    0.49270943725356
H           1.88988825477965   -0.08245231599358    0.60711299220782
H           1.19818990499843   -1.44764803839124    1.93175969924460
O          -0.55420178269799    1.87440291354104    0.98024640197567
H          -0.80128433888750    2.39027614915700    0.19063042739250
H          -0.97754316634221    1.00883178813985    0.81183356057438
H          -0.55405983658847   -0.17914119638646    3.01596533984903
N           1.67579546130778    0.82342570592998    0.05851631200566
H           1.21684934041464    0.51401553057142   -0.83246624664587
H           2.50763239912451    1.37633109206012   -0.11695454168137
H           0.92317614032833    1.37722981742398    0.56833077225346
