    23
        -45.37890806  Gyration_radius:  2.28768956997 Dipole_moment: 2.694
 S           0.75627141236420   -0.50979829899575   -1.39241475517162
O           0.46024280320970    0.60227367258350   -2.26217835477136
O           1.77896690953598   -0.17865627621535   -0.39546222777257
O          -0.41189607742993   -1.09335016784865   -0.75783831768290
O           1.38397592370967   -1.63860427152741   -2.31085173188185
H           1.67998927193419   -1.13187971073920   -3.05985514951752
O          -2.76127320823372    0.21743717908527   -0.59441254473034
H          -1.99738267355062   -0.34653908264805   -0.81832048162885
O           1.72309122903300   -1.81078719395526    1.73636818957502
H           1.88948074419602   -2.70983438699965    1.45016689234972
H           1.84863169471832   -1.24787600007814    0.94568570008786
O          -1.07466129092818    2.29056136141969   -0.88137941619942
H          -0.27037456652045    1.93206725572411    0.37792259360688
H          -0.52494920313855    1.83827664138360   -1.55436837589413
H          -1.88318199008565    1.74009976076642   -0.82822087488799
O          -0.77887732709562   -0.79221713134597    1.88087663766745
H          -0.81461573322541   -1.04234944606242    0.93587891870102
H           0.02076639725348   -1.25396210014739    2.19382288284403
H          -3.05237968763181   -0.06647505517648    0.27493904046620
N           0.35912200105169    1.45438880958075    1.11492758054869
H          -0.18883615562018    0.68279713204263    1.60180820474372
H           0.75806971716449    2.11604709912586    1.77180015374860
H           1.09981979928179    0.94838021002133    0.57110545580520
