    23
        -45.37890830  Gyration_radius:  2.28801778359 Dipole_moment: 2.673
 S          -1.19154048937154   -1.08269654722294   -0.42092800078190
O          -0.48594414182954   -2.32569538715884   -0.22570695392905
O          -1.16611027146846   -0.19967166295219    0.73144979214011
O          -0.75032385862131   -0.37583882882616   -1.62698911915995
O          -2.70970110876118   -1.46729081929849   -0.66440828700311
H          -2.63470646037182   -2.37994441063093   -0.92314221976233
O           0.62812648468995   -0.48842653887322    2.72097936897005
H          -0.14504903413832   -0.48957993043719    2.12592625211601
O          -1.32544020945196    2.24661343659614   -1.57114434828747
H          -2.27493862311406    2.36131821208811   -1.51450504651011
H          -1.17549821187063    1.28619642844887   -1.68466120572339
O           1.93320555890147   -1.71007989667502    0.71372212557281
H           1.13042662761138   -2.15605455496650    0.37275070621524
H           1.92390021236187   -0.46104279988173   -0.18137208969145
H           1.66599564553340   -1.38771624845414    1.59927294611712
O           0.24180151543141    2.07957517096137    0.62770588432447
H          -0.23681550221797    2.51462723453366   -0.10183369724227
H          -0.34743752048226    1.33278924566955    0.85555012465123
H           0.79617274949078    0.43251228612870    2.93269208311010
N           1.64315925834736    0.37459113583815   -0.80628682993054
H           2.39323001989362    0.66702188063081   -1.42296882345005
H           1.28924567394996    1.17092206895433   -0.19506967816222
H           0.79824168547763    0.05787052548460   -1.34103300344926
