    23
        -45.37890827  Gyration_radius:  2.2879535288 Dipole_moment: 2.667
 S           1.11633685841549   -0.43123175749138    1.15600469269980
O           1.10180974211667   -0.81189610707426   -0.24516161498792
O           1.72595046799385    0.85098727156979    1.41152573983675
O          -0.22572435541975   -0.53484199973679    1.73657910126234
O           2.00747270359156   -1.50450404514599    1.90844974509619
H           2.46258905019820   -0.96142880347624    2.54358434601886
O           1.45788709853357    0.98281850048411   -2.22348600585684
H           1.52920695027140    0.29656355632462   -1.53368158539900
O          -1.71744395083137   -2.44611223399316    0.58205071250605
H          -1.29176408699341   -3.29569314419276    0.70396760246482
H          -1.19042016411100   -1.80325905645104    1.09859289638032
O           0.59515361756515    2.59853367389060   -0.25621466945987
H          -0.73338198846947    1.84436653616738   -0.08849876388449
H           1.12177383460902    2.14874216961639    0.43659879884402
H           0.97214728940587    2.26155699019746   -1.09516785250204
O          -1.22397432561002   -0.89152955490353   -1.57638278035694
H          -0.29615881049258   -0.95847689594046   -1.27383430209736
H          -1.67053857520334   -1.58019411164734   -1.05011034662698
H           0.85082008563657    0.63423881927610   -2.88011026176505
N          -1.49935629190116    1.10903922855582    0.11162572637532
H          -2.39855857955542    1.53123924126154    0.31563083608179
H          -1.14294912328600    0.53967531770622    0.91724304322103
H          -1.55087745644722    0.42140641499966   -0.69920505785523
