    23
        -45.37890793  Gyration_radius:  2.28781665456 Dipole_moment: 2.645
 S          -0.87451145410946   -0.51118200796808    1.31995988900025
O          -0.85534450702208    0.68924184539049    2.11971886235656
O          -1.35324331318106   -0.31127001861231   -0.03634099312241
O           0.41945540810302   -1.19992239695810    1.31778181513663
O          -1.89844902051426   -1.49610665359409    2.02256086140543
H          -1.94775653686841   -1.12503977537386    2.89754409135848
O          -1.45633789968848    2.12801039424154   -1.17601673360689
H          -1.61680699439572    1.27872390539933   -0.72339660940414
O           0.71064558811639   -2.85659041818052   -0.77544106527447
H           0.03205750180936   -3.53203236327613   -0.74070494335945
H           0.62146664367927   -2.34124614255291    0.05174906952150
O           0.42383490306306    2.54920668118193    0.69825338128615
H          -0.04925009220794    2.03493297903375    1.38474462406181
H           1.35042415420994    1.44973316929824    0.15476963362305
H          -0.24813772001838    2.68170363160135   -0.00200751171075
O           0.35246449705488   -0.52130524870525   -2.09430814563398
H          -1.21680974482430    1.90452013154921   -2.07815960679479
H           0.60855555243322   -1.45468299619952   -1.97726402528341
H          -0.42250880679889   -0.43586236285780   -1.50365770593144
N           1.79248834718407    0.51156957642172   -0.14803757092421
H           1.45158970092914   -0.19898446673571    0.54430217869986
H           2.80526475366442    0.55231799251607   -0.18036394534527
H           1.37090902939104    0.20426455437429   -1.07568556006221
