    23
        -45.37890814  Gyration_radius:  2.28817837952 Dipole_moment: 2.661
 S          -0.19395005036125   -1.06680443439568   -1.26131658077386
O           0.93486799016230   -1.93611093751115   -1.03556295193226
O          -1.05353628740226   -0.89900811746101   -0.10312965631946
O           0.20584478606298    0.23473164707786   -1.80452538470547
O          -1.07314794791894   -1.76222034937102   -2.38176105253017
H          -0.44273145117393   -2.35473496539785   -2.77800978301166
O          -0.23553119768711   -1.50890166181359    2.39017128191299
H          -0.61567116238809   -1.47367911245397    1.49223453464113
O          -1.64092960124533    2.14389084397301   -1.40950491139825
H          -2.45208676228846    1.89691156628921   -1.85550737109001
H          -0.97787225768464    1.46958611695108   -1.66139935962193
O           2.13426770940338   -1.09234322416479    1.19222611678769
H           1.87460667042068   -1.55404793723389    0.36820652724607
H           1.78868024659863    0.34979508256050    0.78963867624951
H           1.44065436682582   -1.34854251951654    1.83467934864016
O          -1.13729038899461    1.46438979600551    1.16073283795215
H          -0.67115648165970   -0.81375620926221    2.88831305921045
H          -1.47304436972228    2.01101434578301    0.42657367167642
H          -1.27839254820146    0.55397363292107    0.83223201075184
N           1.35621835034486    1.23670193958541    0.34913439295434
H           0.44426621777754    1.47039764564570    0.84570044751117
H           1.06499469525617    0.95931437788949   -0.61962017842250
H           2.00093949387897    2.01944247391646    0.34049434426867
