    23
        -45.37890830  Gyration_radius:  2.28812769299 Dipole_moment: 2.681
 S          -1.17748800406685   -1.13668688686907   -0.30378981281105
O          -0.36085554511563   -2.22573103960649   -0.78149081584280
O          -0.76825544216646   -0.61116225404865    0.98645023716306
O          -1.29884781910823   -0.05843733225064   -1.28946216222942
O          -2.63598552235761   -1.72632094795238   -0.11133413583757
H          -2.60114074075271   -2.50170486453528   -0.66171477224378
O           1.67885401504761   -1.07565448060476    2.01508440068965
H           0.73670181958530   -1.06504610079698    1.76191340837304
O          -1.99612763382300    2.29158308664798   -0.19268489838952
H          -2.85367869435840    2.20400007890223    0.22550546305874
H          -1.83300321093421    1.44456400044079   -0.65499409835893
O           2.17996911421082   -1.43509930975374   -0.60120240202183
H           1.34334064896658   -1.91773031541565   -0.76474292423033
H           1.72702396977733   -0.01663762344025   -0.98115082632684
H           2.25785638004789   -1.42172331628078    0.37514989593716
O           0.31332311358275    1.83718607986047    1.14124094765125
H           1.84687280882058   -0.23150377972905    2.43981089643116
H          -0.44325077104848    2.35370996964695    0.80753750919794
H          -0.08275930367282    0.95796538788416    1.30536849996269
N           1.16210328002400    0.88652643213871   -1.16185251525778
H           1.58568200900790    1.47371894067195   -1.87193514462302
H           1.01855438475921    1.40415237275011   -0.24303979136292
H           0.20111114357668    0.57003189234402   -1.43866697892314
