    23
        -45.37890831  Gyration_radius:  2.28803743947 Dipole_moment: 2.679
 S          -1.42548385771735   -0.26661036953423    0.81655272847017
O          -1.10011358708946   -0.65663789539230   -0.54370163145892
O          -0.97270822181969   -1.19830536786029    1.82050673504114
O          -0.97722366714745    1.10288525771750    1.08587077407254
O          -3.00717040916034   -0.24137968976368    0.91521694036863
H          -3.14788163068190   -0.58498260291872    1.79129927865362
O           0.79605056327617   -2.49006167994030   -1.09585898801991
H          -0.01921190674329   -1.98499772290257   -0.91667361998264
O          -0.99303273048209    2.65904232048432   -1.10252089435807
H          -1.05606769460981    2.16572016108522   -0.25962809505993
H          -1.88775774662760    2.72363440987485   -1.43892582335832
O           1.60585018182367   -1.67702318563775    1.33479370205240
H           1.75903766737803   -0.21129853791889    0.89895055639957
H           0.69759526808088   -1.64022649353480    1.69993372228403
H           1.50429222217669   -2.17879614770768    0.49967341718771
O           0.72619139209433    0.73847498840656   -1.92434061756690
H           0.27366323295802    1.60198287745110   -1.93582980237698
H           1.17021160065915   -2.11154645274832   -1.89455728248631
H           0.02333718820835    0.13217091798114   -1.61572817377148
N           1.59142039687529    0.80109119290290    0.56062024445006
H           2.31674290401132    1.43869630367923    0.87014587975237
H           0.64836037630266    1.07193586701022    0.93144040023412
H           1.47389846825678    0.80623186924511   -0.49723944052543
