    23
        -45.37890822  Gyration_radius:  2.28784113823 Dipole_moment: 2.670
 S           1.16621775826201    0.66996743105583    0.97931304504704
O           0.85317898398268    1.02357388362139   -0.39374940225960
O           0.33190653867330    1.32054462668385    1.95996956759979
O           1.19127143526155   -0.78593348236174    1.14815406782521
O           2.64481219973175    1.17212539289354    1.25074504876969
H           2.57996685832883    1.47739272171100    2.14963897496333
O          -1.49453705449610    2.15044407813032   -1.08546727785330
H          -0.57615964293969    1.93600548255252   -0.83550071941236
O           1.94138949992314   -2.08018656795197   -1.08182125664087
H           2.82871510527804   -1.80922463691727   -1.32078945085880
H           1.75326772287728   -1.65833448644353   -0.21898693346287
O          -0.25040672158328   -0.80109032723791   -2.01902430835631
H          -1.64195493081739    1.72811704639583   -1.93465034591612
H           0.17045340797161   -0.01700854188909   -1.61301366455673
H           0.46992839309167   -1.45811589890022   -2.01115326087224
O          -2.19816966589988    0.93781837779938    1.20768368863586
H          -1.79970088380786   -0.45859023416653    0.70511183321308
H          -1.37013459656550    1.18253324422049    1.67035212665187
H          -2.19756872117606    1.50354428768154    0.40797511470800
N          -1.26567573489120   -1.32882144719462    0.35140835513847
H          -1.05694871773565   -1.21851699111105   -0.68641695962569
H          -1.75452345961895   -2.19356616061839    0.55562464920947
H          -0.32532778383940   -1.29267780794631    0.81459709804321
