    23
        -45.37890797  Gyration_radius:  2.28779264447 Dipole_moment: 2.647
 S           0.47337213830467    0.90525452314757   -1.31347155451125
O           1.20625948887821   -0.16987647994676   -0.66882203023753
O          -0.48812453752092    0.45768421890875   -2.29137868045160
O          -0.12154686823290    1.79937854609040   -0.31586978243625
O           1.53948174249188    1.77167004640757   -2.10399112279434
H           1.05915670180501    1.98360353670273   -2.89773481192808
O           0.34187666435599   -2.72183687251466   -0.70999616245206
H           0.77127185136034   -1.85753969323384   -0.85292890447211
O           1.31739779511439    1.93380164183455    1.94768529477902
H           2.19088819905204    2.27226206996778    1.74688925491228
H           0.80608625637228    1.99487655977814    1.11549466495750
O           0.76497759729181   -0.71455110748311    1.91901141877319
H           0.60441095902807   -3.00435992594674    0.16891285348872
H           1.09290310479891   -0.65885879168950    0.99912795304535
H           1.04553384975344    0.13889086780933    2.29777367283316
O          -1.97475661053047   -1.42055243047838   -1.11794606854675
H          -1.87430428202087   -0.63105447698353    0.19699597196534
H          -1.57738317543778   -0.76543792630809   -1.72830725751196
H          -1.29248619775523   -2.11953756393378   -1.04512004596054
N          -1.58262408895137    0.03599465619863    0.99531386637320
H          -2.35784277024989    0.27540839571492    1.60369542318416
H          -1.17903570917938    0.88214021846225    0.52466623530215
H          -0.76551209873433   -0.38736000252511    1.52999979168287
