    23
        -45.37890792  Gyration_radius:  2.28762352907 Dipole_moment: 2.646
 S          -1.61057291484946    0.12632723991376   -0.39500600093418
O          -1.03919391146894   -0.26992652560084    0.87974817518985
O          -1.72019241183832    1.55369964078754   -0.57218625312273
O          -0.90379171754722   -0.51995473078045   -1.50477553459602
O          -3.09066346206888   -0.43998842845361   -0.42419272405422
H          -3.55685988399781    0.26979891969049   -0.85371959092540
O           0.36882043749765    1.43914884962757    2.41480625623686
H          -0.29654388679252    0.87181407901109    1.98202673566201
O           0.08799839810505   -2.92488707846528   -0.83794748018099
H          -0.63166958159329   -3.50191897379837   -0.57903076229554
H          -0.32934179169942   -2.10092236601912   -1.16134224374494
O           0.66863597224007    2.59116154398305    0.00467913504394
H          -0.26077727507859    2.43328657644533   -0.26142469483211
H           0.66998817733553    2.42124772534581    0.96935077525277
H           1.32347434163306    1.34803820705859   -0.61841313764264
O           1.39931748382298   -1.38126643535624    0.95612911896299
H           0.50406744665714   -1.03346214938350    1.14160490961648
H           1.21332564949366   -2.17744495683546    0.42507511115814
H           1.03408532130646    0.84360225243586    2.76678522239374
N           1.53294492609884    0.36317123408690   -1.01023252130257
H           0.63224713115804    0.02823271832851   -1.43090925870327
H           1.71659195928142   -0.30690107640273   -0.20396002689172
H           2.28810958233021    0.36714374436252   -1.68706522027593
