    23
        -45.37890821  Gyration_radius:  2.28800372636 Dipole_moment: 2.657
 S          -1.59168085450096   -0.16980910183243    0.45429263472701
O          -0.97841137502971   -0.58495042539781   -0.79471771475431
O          -1.45024720196697   -1.12572429442247    1.52543818577593
O          -1.13354766676610    1.16865130968079    0.83835888542957
O          -3.14679832311353   -0.04184936480117    0.17597440659010
H          -3.51305717785373   -0.38110567531967    0.98609688900819
O           0.87173576534699   -2.54110129757596   -0.90492742744508
H           0.07190041675874   -1.98260101759467   -0.91742216946491
O          -0.53514358705546    2.71229142281573   -1.27604094728324
H          -1.31903909355233    2.82905857863307   -1.81435973487626
H          -0.82592010564146    2.22831811424637   -0.47667209064186
O           1.20721376722786    0.68423798773642   -1.68956075050501
H           0.41473310194860    0.12507444825889   -1.56276068542398
H           0.82535658750398    1.57478184548026   -1.79764472482779
H           1.44749530468888   -2.19230646110280   -1.58902167155627
O           1.13449109800433   -1.77112365420215    1.65704611562577
H           0.16990853607438   -1.67436984199130    1.79774512877997
H           1.20161244957033   -2.26892796637524    0.81612858438895
H           1.47979356492095   -0.31997732560122    1.28653797912078
N           1.46182910314153    0.69983068459725    0.93014429524065
H           1.59862212952064    0.70882894900814   -0.12533845822162
H           2.13221945505738    1.29042996808591    1.40994047789755
H           0.47693409571075    1.03234311766661    1.07076279241842
