    23
        -45.37890824  Gyration_radius:  2.28827258639 Dipole_moment: 2.681
 S          -1.13974695590285   -1.17790359169510   -0.28845182202871
O          -1.37252207269901    0.22555857773502    0.00213244369724
O          -0.87259172312049   -1.45455698078615   -1.67875952716327
O          -0.10851816839944   -1.72803769691546    0.59637926405732
O          -2.48130576612208   -1.94319480414321    0.06716332892999
H          -2.52074843878349   -2.59146758825771   -0.62838971449816
O          -0.63343180931208    2.18386913812452   -1.69444031318836
H          -1.08413271620963    1.49650943066831   -1.16876957832510
O          -0.03719812375941   -0.53005609525328    2.99850999844736
H          -0.87415381641542   -0.66391153427863    3.44518854913542
H          -0.08074993865438   -1.06104104747690    2.17752810904117
O           0.43929465556996    1.60996896626917    1.41312756943773
H          -0.34543751204623    1.28715269336971    0.92665506200726
H           0.40328942852205    1.09742250041050    2.24168931030215
H          -0.36007389744643    2.85762414080614   -1.06794285033320
O           1.04593040369149    0.22768709100698   -2.45520094610885
H           0.36571455545366   -0.47416791256335   -2.38938443037814
H           0.53038143510499    1.05982058653096   -2.42056222072629
H           1.67653958716909    0.09458557342026   -1.06008892064770
N           1.86458772882662   -0.08382951598224   -0.01113065430385
H           2.84262947260826   -0.27043931200136    0.18137094715319
H           1.25275008067349   -0.89376867872895    0.25340087115279
H           1.48949357125624    0.73217605977888    0.55997550431529
