    23
        -45.37890777  Gyration_radius:  2.28838025335 Dipole_moment: 2.645
 S          -0.47483926600476   -0.19044039501257   -1.58373179238261
O          -1.21849655930168    0.43730315390229   -0.50590229594696
O           0.46417245489037    0.68712516202923   -2.23895034167008
O           0.15051350914356   -1.43492903387175   -1.12698362570449
O          -1.53535227087148   -0.60679038144320   -2.68561588256058
H          -1.06744853502802   -0.39731227844811   -3.48726147646583
O          -0.40659976581454    2.72898280734766    0.65527314514761
H          -0.82048860006617    2.02257799000302    0.12460604500917
O          -1.24214537618870   -2.65987051260448    0.81529927489390
H          -2.10844133396892   -2.89852176581815    0.48278295225382
H          -0.74621007289217   -2.30700596115617    0.04897982029348
O           1.92892701126256    1.82754715995642   -0.32358996877383
H           1.86265717782219    0.50979454631957    0.46438995624363
H           1.53634415390942    1.52739404221459   -1.16940070168728
H           1.23383111259515    2.39336282369238    0.07160423082221
O          -0.75281802457030   -0.29266453586123    2.03135311178803
H          -1.00928857838944   -1.23087295367090    1.96459373535581
H          -0.66190944028911    2.55914177616972    1.56472548259642
H          -1.09280129746554    0.08307119141978    1.19463274505675
N           1.59572863024749   -0.46157311334204    0.85514902513497
H           0.77818843198922   -0.36002121317882    1.52902730794534
H           2.38420553381946   -0.94049641824989    1.27629950599615
H           1.20227109520708   -0.99580209044724    0.04271975659970
