    23
        -45.37890801  Gyration_radius:  2.28756480218 Dipole_moment: 2.688
 S           1.31156291618660   -0.36348578179884    0.95656712470297
O           2.07096551353415   -1.18480855218486    0.04580417038642
O           1.36835981586941    1.05804374521457    0.60217102675029
O          -0.06277809596157   -0.79459971551751    1.13860539161382
O           2.01794866470420   -0.49462617434917    2.36935895400574
H           2.88998413547254   -0.78302237040341    2.12041804007323
O          -1.28762240694008   -2.45357888849725   -0.59641793714511
H          -0.81078203740421   -2.02544720822088    0.13914697807019
O          -0.66180956038263    2.46803189765137    1.65137732487250
H          -0.62498473529140    2.41024444414573    2.60696999797951
H           0.14553132209934    2.02322418153261    1.32249781742141
O          -2.06564142677819    0.69787023611434    0.16328912812409
H          -1.91091892514029    1.50736761211007    0.68422111332295
H          -2.17387203751631   -2.08520987823237   -0.58588849138360
H          -1.50010691739224    0.04065782389472    0.61599242736670
O           0.62332023170971   -1.42328086863680   -2.18162184392055
H           0.14396668810694    0.02315835440748   -1.98174391797297
H           1.31359445045550   -1.45941823453971   -1.48750967148454
H          -0.09936204345333   -1.98006178991372   -1.82499900035228
N          -0.11481506114617    0.99196368638032   -1.57931461348380
H          -0.12037452713257    1.71736550361826   -2.28797298852612
H           0.59103211154579    1.18502676963022   -0.82768039065189
H          -1.04319807517241    0.92458521759968   -1.06327063978950
