    23
        -45.37890825  Gyration_radius:  2.28797347597 Dipole_moment: 2.672
 S          -0.94223008084008   -0.96070096492444   -0.97987639391589
O          -0.34412311270935   -2.24786068251666   -0.72174818145717
O          -1.35308218561869   -0.24782796026122    0.21647043895277
O          -0.09562758619221   -0.11320422340540   -1.82495491531299
O          -2.25936709348965   -1.24265748908543   -1.81518632585196
H          -2.08452712761754   -2.11387281706871   -2.15588448652853
O          -0.41153385616810   -0.88534290702129    2.65989384443416
H          -0.91223537487041   -0.77165244669170    1.83033270662446
O          -0.67732490787376    2.49903548809085   -1.60224968590343
H          -0.48644714159159    1.55800483247149   -1.79152910125433
H          -1.58215823156429    2.64666105253660   -1.88056356670063
O           1.55310090003228   -1.87567495557081    1.11537169673921
H           1.86066650858162   -0.51579271452977    0.46918584400660
H           0.97562320749854   -1.66701325788461    1.87852277512489
H           0.93656987524628   -2.23436985013470    0.44389896145227
O          -0.02807211962169    1.95843567878782    0.96794483719621
H          -0.20881678140308    2.51216050303906    0.18613921601452
H          -0.65222631251936    1.21411910294412    0.85255814998207
H          -0.34261283851151   -0.01018181464452    3.04789905961707
N           1.82035496515354    0.40980806150566   -0.08691219647645
H           1.25817852737414    1.12813393526509    0.46163066664483
H           1.23453191664996    0.20758742488563   -0.93314588420749
H           2.74135887005727    0.75220599422196   -0.33779746918559
