    23
        -45.37890817  Gyration_radius:  2.28791378031 Dipole_moment: 2.661
 S          -1.40346048116639   -0.86589247878071    0.22193328203138
O          -0.86130091867136   -2.19131287285020    0.39613308195400
O          -0.82820227631485    0.13055712822245    1.10775577173212
O          -1.34271671965514   -0.41823996808239   -1.17258061432374
O          -2.94234536855055   -0.96408002079030    0.58823014955955
H          -3.09861846510186   -1.89902834674356    0.50382280661906
O           1.51302401217068   -0.26115346860173    2.38245620006073
H           0.58312355920259   -0.18123689725761    2.09824723178753
O          -1.47944518096062    2.25254375674513   -1.41660704611538
H          -2.31402473792512    2.56062403271525   -1.06086842196711
H          -1.51957991098646    1.27501097534460   -1.39231111058809
O           1.79515623333930   -1.96104828327762    0.31951799116401
H           1.63433721517769   -0.85610426597049   -0.73694655173407
H           1.92289476178366   -1.48397569246866    1.16543119378395
H           0.86856161911254   -2.27573279041840    0.36361691479405
O           0.74973402572566    2.05125250779539    0.10330898700487
H           0.10227823095826    2.47890489520233   -0.48699171926941
H           0.18679215715850    1.47193839602091    0.65490620449064
H           1.87670026211688    0.62629120130328    2.34634184997551
N           1.26474059470902   -0.06555893486606   -1.37384919088390
H           1.76733600566647   -0.00865650352599   -2.25282128032703
H           1.27885875345423    0.85530803747231   -0.84034693626162
H           0.24615662874540   -0.27041040717661   -1.51837881347772
