    23
        -45.37890828  Gyration_radius:  2.28817782516 Dipole_moment: 2.692
 S          -1.28495089616400   -0.73376537994861   -0.76344481743400
O          -0.72737912289573   -2.04386898900551   -0.99523404839471
O          -1.21237791383459   -0.29477948497963    0.61866615424538
O          -0.71902061568288    0.27823466641679   -1.66049946572630
O          -2.82429713728900   -0.83534923723581   -1.12675265429200
H          -2.83852110832744   -1.60969400159512   -1.67966264164582
O           0.45578721785553   -1.43543203533673    2.40129759149310
H          -0.28771647819558   -1.14891460305034    1.83829168627934
O          -0.99798389351038    2.78216640966601   -0.73123924467493
H          -0.95239420196084    1.90301038919756   -1.15881243453910
H          -1.92995024232475    2.98830154184652   -0.64837580902405
O           1.70223480910729   -2.06544275562148    0.10462805749066
H           1.43471684595852   -2.02686477005909    1.04615318478770
H           0.87053260093699   -2.27485898126387   -0.36871316724202
H           1.86689838971589   -0.59759608264343   -0.31925616075840
O           0.43993517202055    1.70634335178896    1.29237332443363
H           0.04473097324245    2.41340687240293    0.74982075748362
H          -0.23733444525018    1.00164035961854    1.25310614062811
H           0.71461877864410   -0.66291009254038    2.90871721762401
N           1.70526203313277    0.42532664956597   -0.62763456089436
H           1.41549514149789    1.00770643164205    0.21477936494191
H           0.85390309656593    0.40625758057187   -1.24005591662303
H           2.50781099676104    0.81708215056561   -1.10815258815905
