    23
        -45.37890822  Gyration_radius:  2.28818505699 Dipole_moment: 2.667
 S          -1.26752912736763   -0.37164425905188   -1.01188247336596
O          -0.67864598460386   -1.44925938551819   -1.76887016563470
O          -1.20299489904440   -0.55424289938143    0.42711702553389
O          -0.72808838961600    0.93666556635061   -1.39451860004758
O          -2.80462159015486   -0.34607317407416   -1.39761450189658
H          -2.80018416803765   -0.81829230764830   -2.22375664496405
O           0.49388273271679   -2.30532256622943    1.57412030337614
H          -0.25627000821700   -1.82315072330742    1.17831794917279
O          -1.07160642546947    2.80651578977832    0.50180817949134
H          -1.00314345240139    2.19227534112695   -0.25706534958420
H          -2.00867804288038    2.92754725836022    0.66043578897720
O           1.75388521325694   -1.87640393053203   -0.76147229226105
H           1.48730598916360   -2.24536033459253    0.10579565995392
H           0.92669783107978   -1.88577425885486   -1.28609124095885
H           1.88148532674318   -0.36284451467694   -0.52557697458638
O           0.40189540508549    1.01520659787802    1.89384162110053
H          -0.01290807393531    1.87497093507070    1.69525223899290
H          -0.25734711569745    0.37593403078780    1.55705043237282
H           0.73296642402438   -1.81715117512906    2.36511577356947
N           1.69415263479890    0.69061385304857   -0.37600001764964
H           2.48572302543636    1.26677560227892   -0.64039497347076
H           1.39195538604989    0.85740051428038    0.63086207881144
H           0.84206728907408    0.91161403003480   -0.94647378692744
