    23
        -45.37890828  Gyration_radius:  2.28802681003 Dipole_moment: 2.679
 S          -1.51657549246444   -0.67561794405520    0.11360928100774
O          -0.27895845911017   -1.33851670466334   -0.25665241152798
O          -1.73132691316902   -0.58194120718285    1.53700945805806
O          -1.62899183386760    0.62521903365532   -0.55289142490844
O          -2.69682900467864   -1.56723636330499   -0.45592081983414
H          -3.34173354526139   -1.49464159387452    0.24018351120482
O           1.75190385563829   -1.66280982948591    1.48460684591915
H           0.96857965512358   -1.73758954539567    0.90783380200993
O          -0.39904820816988    0.68714399023350   -2.93916008633052
H          -0.80429520438914    0.04315567449283   -3.52132841260537
H          -0.93983588423136    0.69235832913108   -2.12349642160411
O           1.71087544459878    0.08148283072865   -1.35784927491431
H           1.11167358853952   -0.60952306948330   -1.01106224626559
H           1.25015381636147    0.37899032231123   -2.16394035212832
H           2.50066182424991   -1.53861944615870    0.89714921993768
O           0.49473992754001    0.43767951672477    2.59499943513729
H           1.08940020465494   -0.32562249302014    2.44261032831780
H           0.64723351204035    1.31425732138295    1.34188391743527
H          -0.40046366223039    0.07634508222513    2.42869313079099
N           0.58664242933748    1.73875617721056    0.35012534538844
H           0.76879757221091    2.73635471057292    0.34328925452230
H          -0.37794789866616    1.51497002391676    0.00410317765603
H           1.23534427595969    1.20540517403849   -0.30379524725929
