    23
        -45.37890821  Gyration_radius:  2.28784194898 Dipole_moment: 2.665
 S          -0.75507108153399   -1.30715909933112   -0.69937557167677
O          -0.64988989458721   -0.99756856372578    0.71536954957836
O          -1.84781897084648   -0.64372403854567   -1.36768943880910
O           0.52668156174063   -1.08752938324691   -1.37591573520757
O          -1.04879462898652   -2.86125073300925   -0.80290230187314
H          -1.66075428261772   -2.89019841192905   -1.53103164953560
O          -1.85628275156094    1.14899660667157    1.80946342160084
H          -1.58474710800705    0.27112313560031    1.48156838687450
O           2.63661538517631   -1.50381218479488    0.23217039704152
H           1.91083468325815   -1.42967240764115   -0.42014875142450
H           2.62890698403699   -2.41302387067145    0.53431488932947
O          -1.67773758905246    1.94583287833697   -0.75137973785663
H          -1.91935684830495    1.06792806370800   -1.11259339084620
H          -1.91447181783519    1.88411746221411    0.19715294006437
H          -0.14674863384750    1.81836420465340   -0.78686457751639
O           1.40567473283461    0.47561950272272    1.60538774101331
H           2.13391193211894   -0.12040046478786    1.35046293912791
H          -1.19439156694131    1.40526448254866    2.45553152732602
H           0.61626766882226   -0.09165834402580    1.49657655070528
N           0.87238843649278    1.45940977811598   -0.77684791752477
H           0.84210484808336    0.50707631076934   -1.21530267300453
H           1.17527251039279    1.28151962065438    0.22791205225436
H           1.50740645116501    2.08074545572971   -1.26585861962655
