    23
        -45.37890825  Gyration_radius:  2.28792383321 Dipole_moment: 2.669
 S          -0.88481331205515   -0.47908493677128   -1.32489312150862
O          -0.48586164308759   -1.28894104283724   -0.18766213192376
O          -2.09225364018111    0.28091250243941   -1.11186523871397
O           0.22728535101957    0.35997202292802   -1.78114576580362
O          -1.19531932238293   -1.48416938516852   -2.51035490240449
H          -1.94490967139334   -1.06702301595234   -2.92214191422702
O          -1.43727484328591   -0.84325644536082    2.29322768361093
H          -1.24010427146693   -1.14629568932933    1.38697659983193
O           2.62796130655697   -0.75829050917858   -1.33721408970045
H           2.68606845329640   -1.58426482860575   -1.81920283466029
H           1.78124823908995   -0.34752384139917   -1.60587534585414
O          -1.79780773372726    1.58413496114735    1.19646396895419
H          -2.10964020908558    1.22487711358288    0.34012106192529
H          -1.83106963448268    0.81425595953640    1.80115467435157
H          -0.30806596053954    1.76241133224526    0.86409195253350
O           1.71029086968680   -0.63552912556164    1.20491496994725
H           2.36915571090980   -0.73262619014836    0.49286992904949
H          -0.65591986951398   -1.04296267575591    2.81353036736322
H           0.91588654653862   -1.05767409296631    0.82094025577408
N           0.69034737036886    1.67392233805193    0.46046290958017
H           1.20975514424751    2.54314762000000    0.51618486492916
H           0.56862043218512    1.35408339426076   -0.53102290242133
H           1.19642068731161    0.86992454483613    0.94043901937100
