    23
        -45.37890832  Gyration_radius:  2.28802245876 Dipole_moment: 2.679
 S          -1.15595935154721    0.74188009054919    0.93981484295852
O          -1.07245399123487    0.72586373566763   -0.50965446856059
O          -1.80440344704204   -0.41627395309675    1.50485386103306
O           0.16162055772550    0.98674133039432    1.53392040657149
O          -2.05472498291516    1.98817594000883    1.32856208561332
H          -2.54882405282203    1.64360007697164    2.06523079727105
O          -1.38232045152420   -1.53710125284025   -1.93947746071156
H          -1.46838335047349   -0.68806177078767   -1.46662798576518
O           1.74903458561002    2.49231053394369   -0.02306346642789
H           1.18375230440870    2.02118766545559    0.62216090170594
H           1.34305731407851    3.35024461502497   -0.15357941233491
O          -0.64267865637908   -2.56390109075372    0.43183610431054
H          -1.18852130060331   -1.93690561130571    0.95007977973700
H          -0.97499489687336   -2.46460163264566   -0.48428249227350
H           0.69374444797480   -1.80579253018608    0.45190024303527
O           1.30959843343423    0.41484792009767   -1.69970443069256
H          -0.73917954549625   -1.38671071096254   -2.63585295101725
H           0.37157826079713    0.57181480980795   -1.47076585846463
H           1.74952815223835    1.21602221675997   -1.36047064476886
N           1.46666440245517   -1.05121957982570    0.48073411049175
H           1.56877747279770   -0.61182261697443   -0.48326432185561
H           2.34651734418037   -1.41027794126804    0.83481267641439
H           1.08857074120549   -0.28002025402503    1.08283766371939
