    23
        -45.37890821  Gyration_radius:  2.28804289978 Dipole_moment: 2.661
 S          -1.64102007792643   -0.27402384396269    0.02384521537917
O          -0.57762425917321   -1.25982454865155    0.10106612792876
O          -1.98120859461529    0.32518586335629    1.29124218955025
O          -1.34655281031168    0.72817728191957   -1.00461486473065
O          -2.93771160527067   -1.04257413486273   -0.46611614327436
H          -3.61564273304663   -0.62013869310381    0.05123018367253
O           1.09935793788111   -1.40084376949304    2.20567018709305
H           0.39164304916589   -1.49927844083579    1.54135544567762
O           0.11387690546742   -0.25521339098241   -3.03230586282048
H          -0.49437261639942    0.13002125385107   -2.36939333241044
H          -0.37419105025908   -0.95905312342365   -3.46171426710960
O           1.81546645197602   -0.72219598980986   -0.98137238192158
H           1.91570544284224   -1.63282611284792    1.75743048023237
H           1.02662257295749   -1.12216441793069   -0.56354921695007
H           1.53656254872503   -0.61944995947220   -1.90992454354199
O           0.29926499452803    1.15817515566166    2.39607235111846
H          -0.63416608626904    0.95364864543647    2.18053085043318
H           0.69450817476729    0.28270620534070    2.58802516296676
H           0.80622707295250    1.52110803383548    0.99123899581905
N           0.96495633125229    1.59778853588528   -0.07474137946054
H           1.39296515493838    2.47782892891612   -0.34078768502334
H           0.01943668709064    1.47487126828016   -0.51209031450271
H           1.52589649871617    0.75807524287836   -0.41109718812626
