    23
        -45.37890832  Gyration_radius:  2.28815259406 Dipole_moment: 2.684
 S           0.96392896471678    1.09973121868395    0.79568599950165
O           1.30910293274257   -0.25349803466214    0.39839344838569
O           1.14095133283991    2.08217529291128   -0.24569611663133
O          -0.38039959978240    1.14307792015024    1.37877523197073
O           1.96331600760202    1.50006170543062    1.95879106726864
H           2.12896530340069    2.41580239344229    1.76009207717147
O           1.51044555872606   -0.98358570193913   -2.18770335588825
H           1.64151408781527   -0.69915729013359   -1.26371126482239
O          -1.06240549230606   -1.14092618720042    2.61540148332599
H          -0.45735781683943   -1.30201263063142    3.34059493721388
H          -0.83141370159686   -0.25816325982241    2.26152618043488
O          -0.10315865031114    1.15412780433901   -2.41479924172312
H           0.49725295712806    0.40701012554832   -2.61683907832378
H          -1.18107844716308    0.55709237504243   -1.49639735928957
H           0.39180589510646    1.68317596572000   -1.75548599556895
O          -0.62318439708813   -2.09156245230501    0.12085585678097
H          -0.95274583057882   -2.09844770154248    1.03839422785641
H           1.15098561976480   -1.87230046883609   -2.14131076316246
H           0.21624123853183   -1.59542369420402    0.19809662338828
N          -1.73867479373803    0.16120618991901   -0.65984063494775
H          -1.39191583463206    0.67970199185006    0.18351417440420
H          -1.45141625023387   -0.84926695937439   -0.48902524846197
H          -2.74075908411310    0.26118137763229   -0.77931221886876
