    23
        -45.37890791  Gyration_radius:  2.28775250506 Dipole_moment: 2.697
 S          -0.98516847816069   -1.15996404926395   -0.67146244499992
O          -0.38782280195198   -0.36836008798829   -1.75138935508157
O          -0.22050021225874   -2.34705139129920   -0.37666430798543
O          -1.25908474661794   -0.32783957800071    0.48629333991637
O          -2.38905786590207   -1.65740408770888   -1.21339058925089
H          -2.18073051511452   -2.54046459244004   -1.50036481332799
O           0.14021470471755   -0.55223329689115    2.77843474951476
H          -0.50168448742863   -0.59224898720708    2.04481235180121
O          -1.20389714632490    2.18976813895209   -1.73578565596540
H          -0.94620329913827    1.25188197653678   -1.84430418540596
H          -2.15405586649941    2.21854447817285   -1.85514110638455
O           1.90909806936301   -1.57077374445602    1.02902368553885
H           1.22990557408075   -2.06762508446530    0.52758351750230
H           1.95689909949170   -0.28896906448309    0.18250556971222
H           1.45030648750187   -1.31132555675945    1.85460228634491
O          -0.07121142516928    2.06497777194751    0.71821788596370
H           0.17960361114296    0.36918849993325    3.04413985928088
H          -0.44036852734915    2.48886524772315   -0.07837087748991
H          -0.62232363098945    1.26202873358139    0.80885443857172
N           1.72545600969212    0.54623391372689   -0.46274562199974
H           1.19151768606672    1.28309100554207    0.08919864679906
H           1.02976774648033    0.18282746593253   -1.15877311342699
H           2.54934002437276    0.92685228892080   -0.91527425961887
