    23
        -45.37890832  Gyration_radius:  2.28805218094 Dipole_moment: 2.675
 S          -0.45099779948708   -1.07882501820715    1.18407380786996
O          -1.24827947887240   -0.60937842013348    0.06499491767131
O           0.41855377791772   -2.18463469554259    0.86459210629328
O           0.27019064462321    0.03293322519043    1.81086968745683
O          -1.46976698452538   -1.61507126614364    2.27331534094324
H          -1.00486150051891   -2.37357390819193    2.61104002004562
O          -0.62740031035263   -1.20417371848009   -2.48882347842101
H          -0.98136985061482   -1.14742444037238   -1.58143446840241
O          -1.03214599848516    2.37237565368248    1.60560491319850
H          -0.56087752644400    1.53471210822971    1.79007019506734
H          -1.87746970248802    2.30401918718084    2.05130557855684
O           1.77774411529467   -1.50101373810246   -1.32611540929902
H           1.03722782547513   -1.52118650319912   -1.96703498924376
H           1.81362793732336   -0.05459634547198   -0.80845987831383
H           1.41463653849717   -1.94489745139352   -0.53194588420886
O          -0.73553664807886    1.78854057029031   -1.01934357282918
H          -0.91598593993030    2.34407171093084   -0.23870159725443
H          -0.87143119672601   -0.38148444489495   -2.91872150798891
H          -1.10144652186523    0.92096315448112   -0.75443315474435
N           1.62369124818819    0.87554499994807   -0.29236863654982
H           2.44616049738241    1.46675621872751   -0.24288259432167
H           1.27800246142614    0.60614699583367    0.66059591015182
H           0.79773444225121    1.37019612564370   -0.74619731567489
