    23
        -45.37890832  Gyration_radius:  2.28797019771 Dipole_moment: 2.680
 S           0.16283221891244   -1.25454266491534   -1.08090216698712
O           1.51394758968185   -1.66755912420183   -0.78967832552201
O          -0.70321719190382   -1.19703287414250    0.08309853529191
O           0.11516041019311    0.00630023296587   -1.82723409934147
O          -0.44238608938221   -2.36005529054755   -2.04198547935845
H           0.34688934652551   -2.76573523316782   -2.38546425162829
O           0.27134523575311   -1.11091032949633    2.59390120602432
H          -0.10015668390979   -1.34308863333638    1.72214162039535
O          -2.25343674373487    1.25448345956380   -1.61819585827043
H          -2.94037081060450    0.69238897740787   -1.97885629395932
H          -1.40690096603046    0.79987035971408   -1.80382225488534
O          -1.55017227760448    1.17829071162212    0.99339886922702
H          -0.36560310411668   -0.52088588305010    3.00298108002172
H          -2.04773713648654    1.46813809542683    0.20669270681560
H          -1.38706594295088    0.23193492827705    0.80725864755242
O           2.37622224014462   -0.14923284174648    1.22649414221605
H           1.80450791183210   -0.51169921918060    1.93448940582233
H           2.27967099082424   -0.79160949889834    0.49323406201445
H           1.57870139632024    1.02446490508979    0.63647819308992
N           0.87947491498413    1.64514206590717    0.09484868695415
H          -0.05783528862158    1.64592253405576    0.59900598956296
H           0.69303911653309    1.14266641239111   -0.80685431133460
H           1.23309084363649    2.58274888024799   -0.06103009369341
