    23
        -45.37890831  Gyration_radius:  2.28806210734 Dipole_moment: 2.677
 S          -0.82343875241697   -0.76967083511688   -1.22444665831208
O           0.05949384208417   -1.88551381434881   -1.46179724600184
O          -1.23359322969601   -0.62281373257384    0.16065387079850
O          -0.27997536199479    0.48963299038038   -1.74192928539108
O          -2.13940522560800   -1.05921666450102   -2.05901226334543
H          -1.82473695820749   -1.69287342931351   -2.69531590692889
O           0.09675361732268   -1.80397712446623    2.18466561307837
H          -0.50910068887349   -1.53928617035293    1.46720979790387
O          -1.37231964248047    2.65412228363109   -0.58750847357745
H          -1.00954717369809    1.90662778627922   -1.10469198416324
H          -2.31370034691333    2.66655345244089   -0.76511655694154
O           2.03364961488175   -1.71251464938321    0.32339804614074
H           1.51709281861855   -1.91865207900077    1.12979071822551
H           1.43407555993834   -1.96016583284620   -0.41062215122564
H           1.96862771487754   -0.18270037278449    0.19283811508034
O          -0.33126618887803    1.45087931200004    1.60053014372505
H          -0.79197290619219    0.66228418469908    1.25020987230030
H           0.02363720424938   -1.12215164575858    2.85619671513259
H          -0.71456160146444    2.17481724835577    1.07176740525211
N           1.66894629059017    0.83799439789273    0.00335213614493
H           1.04564992194940    0.79930876868563   -0.83936508695048
H           2.46120285739746    1.45451656918072   -0.14048120533996
H           1.03448863451855    1.17279934688945    0.78967436439081
