    23
        -45.37890787  Gyration_radius:  2.28772801228 Dipole_moment: 2.638
 S          -0.94448885404932    0.36667874705774    1.31935949216966
O          -1.30592338105943    0.46483276269494   -0.08358783158809
O          -1.12070946759174   -0.95019369556495    1.88131772000959
O           0.40454588915748    0.89319288264832    1.54627725381901
O          -1.93097269314472    1.32245191303847    2.11026930032269
H          -2.10092999644299    0.81126789068027    2.89481247324531
O          -1.53601328286718   -1.70758023331449   -1.66056086559309
H          -1.65574752305119   -0.93860554803566   -1.07210303989458
O           1.05631513554353    2.84987453893021   -0.17374944061770
H           0.44347079088162    3.57883083804857   -0.06923096788955
H           0.83829369531909    2.21014012164390    0.53402975250099
O           0.60519941059388    0.83856703609382   -1.92646390742743
H          -1.18964552701156   -1.35752351762248   -2.48435042492618
H          -0.22845555621294    0.73884248541859   -1.42460045856593
H           0.93801743410722    1.70163449322777   -1.61845038068895
O           0.10298621099127   -2.66356527245572    0.24347797863105
H          -0.50718775853569   -2.59340175289232   -0.51953079191526
H           1.18129805833897   -1.59842303273910   -0.01192725787819
H          -0.38223399630032   -2.22799235681999    0.97448057054494
N           1.74067637712713   -0.67822423631166   -0.09956066590599
H           1.40502923205614   -0.06683346025931    0.68391839373394
H           1.44359119472402   -0.16608406525201   -0.98405678313234
H           2.74288461741241   -0.82788652823117   -0.05977011894683
