    23
        -45.37890811  Gyration_radius:  2.28793975625 Dipole_moment: 2.654
 S          -1.65956730948929   -0.02852632401004   -0.11374430896988
O          -0.74802318552538   -1.15759022414757   -0.16597601026059
O          -2.01517969993222    0.37945854146594    1.22346015692104
O          -1.15249091528351    1.08594345516928   -0.91977393053872
O          -3.00511442362151   -0.49904293949470   -0.80669256600438
H          -3.65878798659122   -0.08126456538358   -0.25551664938715
O           0.72355762253074   -1.91652982718430    1.95994598223704
H           0.06359931602809   -1.78982642862263    1.25265757207926
O           0.31429689118838    0.27073241379323   -3.01621324787139
H          -0.28557502843473    0.61906246254320   -2.32584926158206
H          -0.22943782595256   -0.26913610823576   -3.59140976296438
O           1.77334264437984   -0.79524945600349   -1.00267822359302
H           1.53354113099055   -2.18345860440043    1.51965672035048
H           0.90762482388442   -1.14246803778140   -0.70822449978947
H           1.58397774286379   -0.48995695013280   -1.90906118098190
O           0.26332974174659    0.65817692712437    2.58174568540792
H           0.52053173734980   -0.28577808659792    2.62797739398491
H           0.92432738405096    1.18620076099461    1.29825379087688
H          -0.66927658960893    0.63446070375361    2.28283558881967
N           1.17542673899917    1.42669576327265    0.27537152508658
H           1.64263769953966    0.58687177385801   -0.18202392606015
H           1.73794648064459    2.26728346602923    0.20153294074675
H           0.25931299025139    1.52394126399574   -0.22627378848229
