    23
        -45.38087150  Gyration_radius:  2.27628803413 Dipole_moment: 2.876
 S          -0.82510278888305   -1.02316908687475   -1.12993004925905
O          -1.35177707718437    0.21268447031293   -1.68873069953162
O           0.61518090894018   -1.11499007087569   -1.29824205561021
O          -1.25536565084930   -1.23660523792182    0.24097160881296
O          -1.45444404475641   -2.21461062007838   -1.96095982083069
H          -1.06636678036074   -2.10532599197985   -2.82279760823316
O           0.13986969981664   -1.95898662321968    2.39819813016204
H          -0.42063318541641   -1.84742304848616    1.60465930310746
O           0.87341019516912    1.55679236804423   -1.95878457907566
H          -0.03378694481887    1.17202319500448   -1.98234215743623
H           1.44017483776713    0.78407349119218   -2.06275152594856
O           1.92285435176747   -0.54209244414622    0.95370590339233
H           1.57410470872859   -0.86806117993570    0.09662907881839
H           1.35830808398909    0.89090802464055    0.92274998926533
H           1.46729462952646   -1.08937886230027    1.62269190062796
O          -1.73620907915109    1.27076047206139    0.84374751817345
H          -2.07744791028367    1.52956586155726   -0.01931411866609
H          -1.66117988591503    0.29396720411130    0.76535716838294
H          -0.41457027184809   -1.73825564179418    3.14812384930560
N           0.86163712891156    1.81472217758023    0.67270895575902
H           1.26229630504943    2.60926821138252    1.15765760872752
H          -0.16918951029479    1.70291693714520    0.87687292057002
H           0.95094230009232    1.90121637458622   -0.38022132051531
