    23
        -45.38087159  Gyration_radius:  2.27633628356 Dipole_moment: 2.881
 S          -1.62513454914425   -0.27453149766546    0.53551543225858
O          -1.93980615388003    0.96895169144423   -0.15131486590494
O          -1.20068596994622   -1.30649380757304   -0.39498138436473
O          -0.69586148606935   -0.07857666430506    1.63463067369209
O          -2.96573374233166   -0.78876879280881    1.20235740279214
H          -3.51228814315939   -1.00078192971274    0.45288258928985
O           1.50212060803197   -1.43800247145222    2.29992204816143
H           0.62596126839544   -1.02191382016480    2.17506935687129
O          -0.83245715857881    0.48392202900017   -2.46865371291139
H          -0.92568005543707   -0.47428266572123   -2.42087799423550
H          -1.34750559505399    0.79656485623174   -1.68852548387648
O           1.44560691884888   -1.63067907211671   -0.38930706342153
H           0.46662741429834   -1.68643583946478   -0.42133267792872
H           1.62887917293626   -0.18780510399856   -0.89639395991705
H           1.65960453287149   -1.70458325152016    0.56116443672065
O           0.39607745653172    2.14367169583913    0.76802679229818
H           1.98300740366859   -0.86863298719456    2.90248873601289
H          -0.40405642130747    2.51875849456635    0.38414285378727
H           0.05834189470930    1.36042777030746    1.25617717728784
N           1.49509642831794    0.81867843235110   -1.25950965495098
H           0.65771258858167    0.77031712576122   -1.90796506076118
H           2.32209026657104    1.17104544630127   -1.72740311366121
H           1.20808333113922    1.42915035189915   -0.44611253723857
