    23
        -45.38083364  Gyration_radius:  2.27607859398 Dipole_moment: 2.706
 S          -0.97152312926271   -1.41440630747496   -0.29096269693709
O          -1.83536827849677   -0.52209700338636   -1.04423514288110
O           0.34107040419109   -1.54670146097545   -0.90348620308712
O          -0.91248194820417   -1.04831761036926    1.11528278013523
O          -1.60970181661888   -2.86330699191505   -0.33971735119897
H          -1.17355555081754   -3.25527290204034   -1.08892072492733
O           1.18647105484635   -0.77803640020210    2.73516471144890
H           0.39304836973385   -1.01270196464301    2.21316152120831
O          -0.06772831651989    0.62570157882915   -2.58462936692773
H           0.55765628877464   -0.10740162975450   -2.58550903897291
H          -0.85945393864973    0.24434154892039   -2.13747322950556
O           2.16904930035358   -0.04703046061936    0.33410303414855
H           1.62847994009199   -0.70644624354370   -0.15049591034450
H           1.39292992760793    1.23316877562812   -0.04016611077753
H           2.04145888192231   -0.27663247988853    1.27541408271967
O          -1.58045797669394    1.47715000930517    0.86041465642413
H           0.87040488453052   -0.26946255555844    3.48348198836491
H          -2.22533418902512    1.35983294150051    0.15453991382648
H          -1.37611434850794    0.55326949699378    1.12709314116205
N           0.69493612325672    1.95515824695301   -0.43036863769651
H          -0.18498592353423    1.91405113097999    0.15405917712361
H           0.43415617637756    1.59606690353472   -1.39348542642078
H           1.08704405463900    2.88907336773217   -0.46326513689384
