    23
        -45.38083656  Gyration_radius:  2.27606255106 Dipole_moment: 2.723
 S           1.09002481260137   -0.61405127221057   -1.20863704371553
O          -0.29136039310855   -0.91289031423544   -1.55172999080498
O           1.41947684340235    0.78002253500952   -1.45096443405050
O           1.44798062198248   -1.02787772897757    0.13847913834444
O           1.97207214916892   -1.49638144456780   -2.18423044371741
H           1.41905929068208   -1.56937756535035   -2.95497477047094
O           0.04511645614433   -2.38615780020809    1.95308546654147
H           0.63606299201713   -2.02267030698669    1.26337415883750
O          -0.98031121658245    1.77081285222056   -1.72433165075675
H          -0.01949843213592    1.54933854093010   -1.71942211154726
H          -1.39108715763967    0.95743804997818   -2.03778541812281
O           1.41872394500469    1.34266428896638    1.26439320622685
H           1.78322546615725    1.83290009658703    0.51954340461985
H           0.48351183531796   -2.22433862975994    2.78990306834442
H           1.52702737241694    0.40633958791456    0.98501685649870
O          -1.84941258283762   -1.01511817339307    0.61229451838325
H          -1.55222787351634    0.46865377681231    0.91259682329429
H          -1.38312707859883   -1.09884714737288   -0.24647845016418
H          -1.35366304491107   -1.60465653196503    1.21373273918100
N          -1.21065769575228    1.49044508777312    0.89450774884407
H          -1.78315867786132    2.09668904518416    1.47047570025372
H          -1.23227630166914    1.77153253085481   -0.12775605000180
H          -0.19550132028228    1.50553049280026    1.18890753397865
