    23
        -45.38083423  Gyration_radius:  2.27609398549 Dipole_moment: 2.713
 S          -1.64784377425649   -0.23855588957386   -0.50558054084970
O          -1.51713875694966    1.06111463854937   -1.14098633369940
O          -0.76952887618285   -1.22937912029069   -1.10746003744281
O          -1.50503780418831   -0.14968740444904    0.93891773357271
O          -3.11988804739220   -0.76107417302785   -0.76826563400771
H          -3.01830669238173   -1.27333698398290   -1.56353177772054
O          -0.05423098480194   -1.62267941021413    2.62118190748841
H          -0.70884797367288   -1.16457347483307    2.05664658962501
O           0.69863885092486    0.69339948899944   -2.47126030606943
H          -0.17081429324113    0.96931590242221   -2.09682906260482
H           0.60417840779351   -0.26101721592862   -2.56404355714956
O           1.41956285212623   -1.63323349286370    0.36406334285199
H           0.63094542602396   -1.65131515646650   -0.21878360898631
H           1.84583198975383   -0.16442504741558    0.16003301340339
H           1.05914712915067   -1.77693614502822    1.26101914306306
O          -0.12862026517940    2.08313152432323    1.03112078720355
H          -0.67992114437554    1.28080075139617    1.16822460371884
H           0.01030426644012   -1.10536753507835    3.42544080654847
H          -0.57551777483977    2.52983346419309    0.30404635096246
N           1.92803226242878    0.86797300139243   -0.13704657192920
H           2.87080191341215    1.22412362121334   -0.03031757240420
H           1.22577490659121    1.42921602457732    0.41927983529931
H           1.60247838282697    0.89267262206979   -1.14586909086244
