    23
        -45.37890809  Gyration_radius:  2.28766498086 Dipole_moment: 2.682
 S          -1.07498328926779   -0.98241004480688   -0.80433098563899
O          -0.61369019999235    0.06171629708370   -1.72440381736727
O          -0.29043650564797   -2.18840462171168   -0.90805159216480
O          -1.18960836186686   -0.46402830386115    0.54699206319740
O          -2.54152722256057   -1.36376507965116   -1.26890319787437
H          -2.38107764973730   -2.15078225891226   -1.77924671783127
O           0.49194841693238   -1.20759791101538    2.51719445416554
H          -0.23962786942010   -1.08237451713931    1.88402751249174
O          -1.39745905162989    2.51940459445778   -0.97831136950536
H          -1.16455275602053    1.64260039103264   -1.34536902056772
H          -2.35477219211577    2.55464263713484   -0.96459074484191
O           2.01042756372153   -1.73169420107955    0.36155719163743
H           1.96162982906682   -0.28134711972152   -0.14517570236331
H           1.66451061692457   -1.69082215648326    1.27699891007652
H           1.26724347903445   -2.10615973902945   -0.15519743173448
O           0.04294565976309    1.82498112096420    1.20408946154707
H          -0.42206387974823    2.42223813836944    0.58959511220492
H          -0.49997123890170    1.01233976265082    1.16477263867753
H           0.57391423296758   -0.37802336447539    2.99287181662819
N           1.65725513498227    0.68052806634953   -0.53178463364673
H           1.20637655622834    1.24866703235089    0.24705685217545
H           0.87389871359167    0.48246976622450   -1.20087877952513
H           2.41962002370063    1.17782150126903   -0.97891201973170
