    23
        -45.38083380  Gyration_radius:  2.27607264463 Dipole_moment: 2.708
 S           0.12137752603794    1.44725219506205    0.95914706874640
O          -0.95651088776958    0.59404289174411    1.43439282035192
O           1.42654058821149    0.94044695353323    1.34600509470827
O           0.04935602019337    1.71875462716639   -0.46775265600536
O          -0.09144106487877    2.84080201645287    1.68124033342579
H          -0.54583179891481    2.59208075056308    2.47926767145103
O          -1.81641688150837    1.05884403528054   -2.25288626503782
H          -1.19423222323990    1.44344058150812   -1.60317647311799
O           0.77539569091405   -1.48214257314434    2.06845803526975
H           1.17308817103265   -0.59443073834422    1.90711134384030
H          -0.13201722529222   -1.27377872568964    2.31693252500390
O           1.96650951311714    0.10172681130264   -1.24145254803250
H          -1.39776772344659    1.15494579312285   -3.10969275844843
H           1.27239837137114    0.78548719294253   -1.11038801701414
H           2.55382884914936    0.24479492241652   -0.49143563736895
O          -1.89629934589478   -0.98679256546969   -0.49932244079752
H          -0.52005670193026   -1.67304884212518   -0.62647810634958
H          -1.71306383407596   -0.40775372810648    0.27077622832663
H          -2.05162785059525   -0.36444739052825   -1.23661923377380
N           0.50186483546085   -1.99418095232410   -0.51092211576308
H           1.13041201341230   -1.25530719684845   -0.93112447978107
H           0.66493366780597   -2.90847806423436   -0.91651797809328
H           0.67956028083413   -1.98225800429513    0.53443758847065
