    23
        -45.37184432  Gyration_radius:  2.26808849736 Dipole_moment: 3.110
 S          -1.49236424061184    0.96314116633874   -0.10563553907020
O          -1.22616000644180    0.12768782900345   -1.27398758997785
O          -2.06297352377799    0.20649848431534    0.99007723532564
O          -0.32246390818728    1.73837384683011    0.26339621210562
O          -2.60783375355977    2.00386979007614   -0.53286724775817
H          -3.40056961382457    1.61354458045877   -0.17920919962315
O           1.02528575296774   -2.05987828832404    0.47074331120135
H           0.08698545545396   -2.36390632521092    0.40623673177324
O          -1.59630030367025   -2.27504381480304    0.14737406540220
H          -1.84892357903100   -1.42826874259732    0.56822178971629
H          -1.73160412586224   -2.12573272707918   -0.79245362389815
O           1.16298036751881   -0.65027961993281   -1.57361815117158
H           0.19554954886047   -0.32789742721940   -1.57323547860248
H           1.73057351227577    0.20329441810713   -1.25596252197382
H           1.19023698897221   -1.33094955021103   -0.74559683909740
O           0.54170909114268    0.00564419445323    2.08608569971387
H           0.27790248246977    0.72918571434781    1.48509835918010
H          -0.27359661905776   -0.23974516291776    2.53243436299928
H           1.00791920952218   -1.36424073964029    1.16889188854530
N           2.29253057533557    1.42100566453350   -0.65588573023139
H           2.90006856014053    1.24230771986986    0.13368387615722
H           1.41674946910532    1.81351703128118   -0.30029423398796
H           2.73429866026624    2.09787196832355   -1.26349738674170
