    23
        -45.38083338  Gyration_radius:  2.27608077449 Dipole_moment: 2.704
 S          -1.34422296736216    1.10457285114845   -0.04319026976021
O          -1.57789154984926    0.03418100832498    0.91352735698188
O          -0.40100909566013    2.08782851430002    0.45997158433676
O          -0.96654143936008    0.62052635994850   -1.36161556402282
O          -2.74420992034309    1.82311731055401   -0.22449768865459
H          -3.17774217652745    1.64088174975024    0.60255148118217
O          -0.82879704154414   -1.86750959665167   -2.30687049232328
H          -1.01195912427433   -0.94418526411188   -2.04034769131826
O           0.59768453414659    0.76556711737650    2.47691019919216
H           0.27982175141997    1.41904844491013    1.81044725462562
H          -0.17834282893711    0.21590233760742    2.63210305777168
O           1.59703573347584    1.16687909747309   -1.22835838115972
H           0.66392844067068    0.95550866717904   -1.45452894496160
H           1.51832439678330    1.99373674362567   -0.74049466589618
H          -0.28925871254505   -1.81314600002239   -3.09703054246363
O          -0.19819162086614   -2.16541550472845    0.29704646922962
H          -0.82297997082175   -1.46681485683219    0.58598672886627
H          -0.40694419426370   -2.29859673779729   -0.64830529387142
H           1.12977479250815   -1.39957597502752    0.47553574635193
N           1.89516636054035   -0.66768499003474    0.67338612750309
H           1.54407116687904   -0.11884318486801    1.51001808715339
H           1.92430100434960    0.00819105011259   -0.13900329219682
H           2.79798245157758   -1.09416913223917    0.84675876343265
