    23
        -45.37184701  Gyration_radius:  2.26814698471 Dipole_moment: 3.125
 S          -0.66207181446267    1.26945951023642   -1.05629592643428
O          -0.34098582868487    2.27198528956580   -0.06090770487444
O           0.52903616511600    0.60526930065599   -1.57844671961190
O          -1.65104718015241    0.30283016111083   -0.61504866663601
O          -1.30959348370243    2.06297654230868   -2.26528241170145
H          -1.04811597898425    2.96016449636884   -2.08454947376408
O           1.57579944626965   -0.63633511257465    1.62202457272695
H           1.98596710211264    0.21436109501761    1.33042759014461
O           2.20007567230960    1.64900069869058    0.43339398647605
H           2.45213711336001    1.39279715542595   -0.45801304119564
H           1.29148371244722    2.00017653453085    0.33896726886382
O          -0.88865560871733    0.33339327981144    1.93179925677234
H          -0.74582838641975    1.27119690076772    2.08765202976059
H          -1.28086652418346    0.29547693567749    1.03784290260959
H           0.66806720548569   -0.38206816346578    1.91009082402541
O           1.08219219327994   -1.65815279937981   -0.59129556823013
H           0.11205572119100   -2.09828280681983   -0.45722839449548
H           0.90017486640463   -0.79039403611275   -1.09480234569053
H           1.37262097787069   -1.31469603644155    0.38161488069573
N          -1.29957795619558   -2.43902528754702   -0.24024390663902
H          -1.72899101342091   -3.12258230013006   -0.84918582551535
H          -1.69488455930165   -1.51684870737622   -0.44280162818761
H          -1.51899183159054   -2.67070266030039    0.72028831090672
