    23
        -45.37890794  Gyration_radius:  2.28777869698 Dipole_moment: 2.695
 S          -1.27910588520933   -0.73174802021583   -0.77094475916705
O          -0.46383613171188   -0.03557665823301   -1.77107874430768
O          -0.90429341064871   -2.11741527125188   -0.62885820207534
O          -1.30382351322291    0.00717903450067    0.47851014942919
O          -2.76239991617381   -0.72641568183223   -1.32932558009497
H          -2.82360667044499   -1.59377780152423   -1.71595872633604
O          -0.05577106490309   -0.88047653975524    2.69572716420587
H          -0.67365493743746   -0.64489099480532    1.97837330338223
O          -0.48423731907674    2.63055157302709   -1.45134318283807
H          -1.38185268953806    2.95256502391578   -1.54326542906682
H          -0.51546000648713    1.67705665171769   -1.66962299424926
O           1.34682298055296   -2.17185014590845    0.80048079895883
H           1.78110616412607   -0.87450430305120    0.10008331159376
H           0.97838311766218   -1.88346797458185    1.66098674871258
H           0.55523526328662   -2.38495209996744    0.26421785504823
O           0.53975760433450    1.89795573800922    0.94378900694416
H           0.32017824845498    2.49998283155946    0.20909585362098
H          -0.22591329862890    1.28951712298653    0.95868537321021
H           0.25297968605950   -0.04850426897195    3.06133990657894
N           1.81432647679827    0.05900572976992   -0.44290338177459
H           1.04824586656162   -0.00065579457052   -1.15709368712860
H           2.71811890704253    0.22672184981347   -0.87123353356626
H           1.51880052858031    0.85369999936638    0.20033873891571
