    23
        -45.38083735  Gyration_radius:  2.27609617933 Dipole_moment: 2.727
 S          -1.28054959641614   -0.50581130356898   -1.06274409090454
O          -1.33406480412871    0.88790433614688   -1.46958961231919
O          -0.02022617199284   -1.13080793325643   -1.43148151427747
O          -1.61254377393980   -0.67187614390695    0.34308008379366
O          -2.39703507459173   -1.28829305593958   -1.86880945379825
H          -1.93407609737566   -1.56024415301501   -2.65423771335698
O          -0.38692887711156   -2.07522664342979    2.24960549471178
H          -0.94083229962676   -1.67781391016888    1.54800559480485
O           1.19062738193928    1.30448710396847   -1.98736004974764
H           0.20795591255096    1.29529562387555   -1.90641717592518
H           1.40052296111488    0.39096896381469   -2.21099110861144
O           1.64164870741943   -1.30700424309054    0.64871896595850
H           1.08245103936603   -1.70238710613050    1.34581555507295
H           1.10456037698679   -1.38991175734850   -0.16776336416277
H           1.67974745922904    0.23083981489279    0.76637859026847
O          -1.01257539499598    1.75398208553298    1.14507539053600
H          -1.32365613270710    2.21902024331698    0.36086996538028
H          -1.33156785529840    0.83600039571333    0.99689906014319
H          -0.71857469284423   -1.72648046106724    3.07841930457429
N           1.55540073137444    1.29255917009367    0.63119084524703
H           2.28218603156192    1.82609936654655    1.09397698391042
H           0.59015726406966    1.55871343844758    0.97027211116474
H           1.55737288541460    1.43998616856225   -0.41891385245908
