    23
        -45.38087154  Gyration_radius:  2.2762968659 Dipole_moment: 2.874
 S          -0.75083613486608    1.23387235802641    0.95780399070469
O          -1.20245017005643   -0.08711422663787    1.36037442181791
O           0.59181725122955    1.51207236455289    1.44441478650471
O          -0.88116634770174    1.47265120020768   -0.46910478759703
O          -1.72160333690689    2.27482089430045    1.65065105656553
H          -1.69276385491588    2.02036535878089    2.56705168549163
O          -1.99057682417458   -0.02922191563460   -2.37574245152683
H          -1.71908195584307    0.60710177211523   -1.68454075204480
O           1.33068117057894   -0.90617550978423    2.10504765798872
H           1.19011328667103    0.06015502240917    1.97041647195498
H           0.44200826002015   -1.23199836342636    2.28726104903694
O           1.65028501877041    1.19036478102793   -1.09679157668373
H           0.68887504957737    1.38126039065550   -1.02532080614686
H           2.00875094459411    1.59194342850823   -0.29772647775221
H          -1.65772331584551    0.32024667081892   -3.20374598030659
O          -1.03664622300347   -1.85167380327463   -0.63152609568845
H          -1.46681286490345   -1.38876657038668   -1.37662435276900
H           0.49327281762396   -1.67397537144981   -0.66822554185745
H          -1.24170288209639   -1.29464917195566    0.14960247073206
N           1.51884947246730   -1.39508746953602   -0.48668134896580
H           1.60530102509153   -1.32838095663528    0.56792020021054
H           1.66821832467071   -0.41825676063155   -0.86117316263467
H           2.17319128903160   -2.05955412205443   -0.88334043702945
