    23
        -45.37184131  Gyration_radius:  2.26819063673 Dipole_moment: 3.126
 S          -0.21271653172122   -1.76324863435497   -0.07518415303982
O           0.12848595069415   -1.87099234503487    1.32836543383761
O          -1.43827489796515   -0.99577789961362   -0.28571230700338
O           0.86795852652106   -1.26848202944030   -0.90710089027806
O          -0.51180326369864   -3.24116121269773   -0.56061481262766
H          -0.76126426228429   -3.67926624200088    0.24663313826052
O          -0.13839001454180    1.98324219311698    1.25057335540175
H          -0.67734187101603    1.39441479011191    1.83333745271059
O          -1.48064096885280   -0.01695937159142    2.35606144872441
H          -2.23130672904324   -0.15040229782730    1.77083674997310
H          -0.85767972263731   -0.73501033831139    2.12266302519218
O          -1.13276449679918    1.42374758124698   -0.95954779012166
H          -0.28675365165657    1.38059194875692   -1.61849911576419
H          -1.35102681332783    0.44760023987957   -0.75989351950589
H          -0.74615127196720    1.78051097537888   -0.02542691472096
O           1.91075051936641    0.30133419979572    0.96966621695953
H           0.73203759756958    1.52569364378181    1.18090705678778
H           1.85631258409222   -0.25734909105332    1.75015033321924
H           1.64434819428850   -0.28536065503706    0.23557266027375
N           0.94771875393172    1.10703425812874   -2.36654338403005
H           0.91014046057141    1.11668660543041   -3.37698208970627
H           1.08832423599044    0.14484150066663   -2.04725073339429
H           1.74003768248670    1.65831215065485   -2.06201113112705
