    23
        -45.37184632  Gyration_radius:  2.26819092239 Dipole_moment: 3.126
 S          -1.06452609418372    0.18729670906402   -1.41301706674848
O          -0.79166019288721   -1.17983480853325   -1.80720093447480
O          -1.74694205651924    0.26629953854619   -0.12415106942909
O           0.10276707302818    1.04946214968968   -1.44219767101895
O          -2.07180047187852    0.74998363857784   -2.49876248185907
H          -2.40350893818322   -0.04561489861259   -2.90256292946895
O           0.87896360604447   -1.39283944858765    1.67575589209458
H           0.13024007867497   -1.96349239719879    1.37417210151103
O          -1.25225670523489   -2.43537886483439    0.49501437582223
H          -1.98315175366057   -1.89136642320427    0.80105037603508
H          -1.07111206429730   -2.11370380352088   -0.41135853049177
O          -0.29965106823861    0.78725657377798    1.88511869924970
H           0.40311369866425    1.49619621274791    1.49026114054081
H          -0.96861540924913    0.64418460811539    1.12891955555740
H           0.22849933744132   -0.14519965080310    1.91834863242842
O           1.82193470404846   -0.86082615767696   -0.76083519779919
H           1.40806057129509   -1.23514563570002    0.85917376876480
H           1.51661656878001   -1.60311609321307   -1.28996221719892
H           1.28406382169149   -0.10694832881243   -1.07185297288152
N           1.32678608234724    2.33173998590626    0.71194463973293
H           2.29234088385606    2.03362308371366    0.76881592995079
H           1.28520698921211    3.33486817274410    0.83218436351596
H           0.97463134925473    2.09255585784383   -0.21885837384004
