    23
        -45.37184534  Gyration_radius:  2.26819933653 Dipole_moment: 3.119
 S          -1.14917089417571   -0.75120536529200    1.13080083626952
O           0.24219936365061   -0.77559169431221    1.57442789725021
O          -1.77499337798067    0.53539804298477    1.35841559446010
O          -1.27378128962636   -1.23045196580620   -0.23346241746225
O          -1.93822716083376   -1.77693726641273    2.04477685295306
H          -2.36346961160510   -1.20546966895122    2.67603465829024
O           1.26686687283467    1.88070236696181   -0.61510650676905
H           1.03381734434132    2.14444696105914    0.30854003822067
O           0.37195000992864    2.02187118173136    1.87546516578775
H           0.88319947930744    1.36079118045001    2.35017468934973
H          -0.49743112280472    1.59780541914550    1.72608312984338
O          -1.20316331283325    1.18654152950223   -1.33904600769982
H           0.39602205276991    1.72813363310795   -1.05118682808044
H          -1.29850516475502    0.26495839859558   -1.02927765415480
H          -1.76505730377240    1.69423651141979   -0.74683784415631
O           1.99844321751147   -0.46327941225412   -0.22066333425174
H           1.36826218860164   -0.66585650691807    0.55485211313126
H           1.58404295976954   -1.00345336135694   -1.05051261459244
H           1.80000015961774    0.56987857605575   -0.42849456429583
N           0.77323764130207   -1.67352367156570   -2.07577966715080
H           1.03917432818958   -2.60470178683275   -2.36671341345033
H           0.60655302768797   -1.10743647037564   -2.89808016056897
H          -0.09996941712463   -1.72685664092743   -1.54440997291928
