    23
        -45.37184518  Gyration_radius:  2.26809876713 Dipole_moment: 3.112
 S          -1.32600179216275   -0.54838513729808   -1.05285580596811
O          -0.35429763496441   -1.58408530859220   -0.71171472910062
O          -2.27594273509452   -0.31419422205803    0.01562545309397
O          -0.66644868186262    0.65530856941775   -1.52478359008980
O          -2.17853932978448   -1.10410421708995   -2.26725193692331
H          -2.97811231093563   -1.39527481516445   -1.84068641576937
O           0.90531764112955    0.16227821565175    2.16107844364234
H           0.20467119021489   -0.51297572707987    2.33506220594023
O          -1.06977324168676   -1.59846926354034    2.01167634932851
H          -0.70208680128395   -2.32528485381101    1.50141379898239
H          -1.63021225443726   -1.11139048482780    1.37410325924549
O           1.90790345073397   -0.78194552297316    0.08998228747422
H           1.05576091065620   -1.19543895662869   -0.28765972502810
H           2.08244264358026    0.08095326946856   -0.52424090570440
H           1.58764046670945   -0.39364177260532    1.03642419690935
O          -0.66676580248863    1.86560182341443    0.84272802122516
H           0.41401305110863    0.93166187673113    1.78926326263804
H          -0.67160460949245    1.53338010241592   -0.07598145030504
H          -1.54736890303922    1.66374585965982    1.17138001213009
N           2.04642094756622    1.28667123112713   -1.36212364001918
H           2.15304429383099    2.14738901265449   -0.84028982365252
H           1.07014820472818    1.21533784327311   -1.66104278244828
H           2.63979129697295    1.32286248785326   -2.18010648558512
