    23
        -45.38083422  Gyration_radius:  2.2760938145 Dipole_moment: 2.713
 S           0.81732040804384    1.43449226301645   -0.55041277766303
O           1.71288277670422    0.58762731695101    0.22165868809679
O           0.58928924851562    0.90950602935184   -1.88544187236897
O          -0.43163703275026    1.72261765894407    0.13664701876685
O           1.56649036839021    2.82239671918631   -0.69642072275173
H           2.48204215567228    2.56923489008682   -0.64306172442595
O          -1.22157311981221    1.10412532412967    2.60605096922782
H          -0.90842636170693    1.47481402056419    1.75656385375847
O           1.50972757433159   -1.51430465170482   -1.58216254937249
H           2.13253520587072   -1.29971272115064   -0.87892007819574
H           1.19541954866823   -0.62887849330383   -1.88137763502511
O           0.37769665057375   -0.96018932754533    1.93711052960643
H           0.99274305219947   -0.39212408475521    1.42630113177844
H          -0.21285984926655   -0.32770059490042    2.39131423923019
H          -0.34446238455628   -1.65972179732579    0.76662146471156
O          -1.97764426685776    0.09542217360666   -1.22364195882776
H          -2.17480088066668    1.20366428550498    2.60318104876627
H          -1.55129929358426    0.78473112748061   -0.66724697971386
H          -1.56035222845226    0.22356558560177   -2.08232909252083
N          -0.69102147866138   -1.99331926505000   -0.19748908818835
H          -1.33994650147484   -1.25618906280513   -0.58881333044314
H          -1.13250687196855   -2.90438422725071   -0.15226873000663
H           0.17038328076533   -1.99567317863839   -0.81586241444086
