    23
        -45.38087029  Gyration_radius:  2.27625287933 Dipole_moment: 2.851
 S          -1.06402023664545   -1.06864015425353   -0.85479185368018
O          -0.85724367003827   -0.18157450851584   -1.98904423441841
O           0.16364087192047   -1.74704328156459   -0.47514343510670
O          -1.71483534567416   -0.39801516883864    0.25744641178322
O          -2.07455770924303   -2.19498076361947   -1.32010040996381
H          -1.56101220050124   -2.70310540402324   -1.93923338630978
O          -1.12334360129847   -0.40352019732843    2.85944772795753
H          -1.45532725470527   -0.50545172528189    1.94520499226283
O           1.75328715245637   -0.06389950026952   -1.98700691606684
H           0.78401210304959   -0.05039548898148   -2.16610853135277
H           1.88805937574718   -0.92973561658835   -1.58536635988272
O           1.28833417831823   -0.64628784776984    1.67744029664763
H           0.54539930334521   -0.58068832210141    2.30860900069333
H           0.93837802711437   -1.20354704633766    0.94982320421506
H           1.48867916953446    0.67241713751946    0.90585790580330
O          -1.00675424071052    2.05256152933037   -0.35592096173489
H          -1.59527029078302    0.34289926130263    3.23161199183897
H          -1.07017962825072    1.95160290562424   -1.31198681333615
H          -1.39971541665216    1.21627220238338   -0.02107382523220
N           1.53183696717962    1.45523045971428    0.16579269430319
H           0.55705683765732    1.84192328339622    0.03492883080962
H           1.78451501176599    0.96612598415242   -0.74035466823091
H           2.19906057633796    2.17785226204341    0.40996831898335
