    23
        -45.37184485  Gyration_radius:  2.26820074562 Dipole_moment: 3.111
 S           0.32833857081475    0.36784784396903    1.70900878136318
O           0.28593386407587    1.78626996336788    1.41730521535990
O          -0.95563252600476   -0.28487481901169    1.46559684779384
O           1.40948003857868   -0.33562370269587    1.04389743854358
O           0.60767200570698    0.26007511126447    3.26479884208725
H           0.35367697773065    1.12169668930206    3.57961324481158
O          -1.04877974018520    0.60379409469141   -2.01264087804380
H          -1.53432456118189    1.20578747608930   -1.39700344173244
O          -2.00823824399066    1.92574810443792    0.07400468956804
H          -1.16604843973447    2.02651201874498    0.56237501715169
H          -2.49611716780262    1.26346006556588    0.57116238077057
O          -1.18423608816180   -1.52218116718405   -0.72982055983461
H          -0.21310916649718   -1.95939780381340   -0.85620651939977
H          -1.15965128949347   -1.11110830221092    0.20308671705054
H          -1.19279816729465   -0.66256855262789   -1.37142583865971
O           1.39233321574139    1.20266495994363   -1.12458355758258
H           1.51931373475087    0.62098483532276   -0.35005750452028
H          -0.09964576618982    0.83535508284178   -1.88079152049798
H           1.28828732704251    2.08036310540900   -0.74644654589557
N           1.20733337180579   -2.33809852465318   -0.88878637012892
H           1.45422831170796   -3.29886944882044   -0.69274259447029
H           1.52189811974970   -1.74846942950183   -0.11363458056431
H           1.69008559884939   -2.03936760044660   -1.72670925315297
