    23
        -45.38087140  Gyration_radius:  2.27633257297 Dipole_moment: 2.874
 S          -1.50735659158047   -0.80089393865213    0.29441020966339
O          -2.10697757115568    0.51635522632770    0.14653970410763
O          -0.90706754399978   -1.25793568625201   -0.94729095594069
O          -0.60087800506268   -0.87095392654990    1.42735364165449
O          -2.67992446741673   -1.81074193674602    0.62863677550530
H          -3.19123931058273   -1.82258637864749   -0.17374137171895
O           1.85880798658264   -1.88941524896247    1.61136007201939
H           0.91014415175353   -1.65196455869232    1.61650384655051
O          -1.00901022873949    1.24712867805681   -2.10994757885441
H          -0.89346853843719    0.35372378225921   -2.45294951403685
H          -1.54992025165610    1.10517295961216   -1.29825189005213
O           1.74568870239640   -0.99305644617850   -0.93003133784280
H           1.59645142747565    0.53532302240963   -0.80929992582801
H           2.00545790717339   -1.39528940667180   -0.07839894736466
H           0.80081920978668   -1.23596972138630   -1.03367660437180
O          -0.04376591547184    1.68800290438365    1.57952203595489
H          -0.18752602863836    0.72276785160749    1.69558686069642
H           2.22854767790051   -1.52204566284131    2.41563438520273
H          -0.91950293722504    2.00764780783510    1.33626544997891
N           1.23694461707497    1.55004159580142   -0.74744405172713
H           1.95144071147226    2.22575856394512   -0.99228206074762
H           0.85668672986305    1.70848113803592    0.22566521707683
H           0.40564824849168    1.59044936131454   -1.40416396992923
