    23
        -45.38083357  Gyration_radius:  2.27608830198 Dipole_moment: 2.707
 S           0.10163675605086    0.90355767841683   -1.48396032989124
O           0.36646444541930   -0.38010408427062   -2.10989044011714
O          -1.23886391689186    0.97000775078129   -0.92344104284386
O           1.13893700937512    1.26238214115157   -0.52980576637088
O           0.14347572164091    2.01255922733193   -2.61413477725321
H          -0.77005193180362    2.07881730943680   -2.87148472795486
O           0.94194560206905    2.17977249055268    1.96472790838282
H           1.04815229730274    1.99037740346610    1.01082285611007
O          -1.62025885461435   -1.77216531091926   -1.14576308415241
H          -2.21719967219165   -1.02593049308615   -1.02198686233631
H          -0.86899298647202   -1.37751061319334   -1.64784054586676
O          -1.22651255520608    0.59717792508171    1.71898695791742
H          -0.66066943854714   -0.82602569404314    1.53016775198293
H          -0.53518498956607    1.21600849064523    2.02580408271206
H          -1.36559520273031    0.83771091490992    0.77839156659359
O           2.01992385810200   -1.15751939163399   -0.02364372588063
H           1.84623702748382   -0.19759010196649   -0.14571638997797
H           1.80195446480648    2.03297889626564    2.36131342034030
H           1.92695750234717   -1.50826809733184   -0.91597681326701
N          -0.29323036650750   -1.76105494314106    1.14102284595454
H           0.69612090920199   -1.61146458167651    0.79976981190830
H          -0.88299643081854   -1.95399288462891    0.28114743473567
H          -0.35224920845039   -2.50972403214940    1.82148987927465
