    23
        -45.38087070  Gyration_radius:  2.2762617995 Dipole_moment: 2.846
 S          -1.35629503653717   -0.98477617252774    0.43821965836290
O          -2.14156306013101   -0.06115221498896   -0.36591905365866
O          -0.41043948249202   -1.73068014138448   -0.37437540691371
O          -0.74025962802676   -0.33385727646237    1.58144975965865
O          -2.36172142520798   -2.04536830183551    1.04693229957408
H          -2.63952624169870   -2.54295536304332    0.28509999150522
O           1.75793161691904   -0.47928176715856    2.50756352416552
H           0.80634072784676   -0.52627594299029    2.28684924518581
O          -0.71113794349603   -0.05410496070917   -2.55296167220200
H          -0.35237744633390   -0.94114935962970   -2.43682971817970
H          -1.38777049475072    0.00753939728228   -1.83874170827515
O           2.06736862318459   -0.77084539035003   -0.15578819532101
H           2.19558604329607   -0.70134304037482    0.81021142527130
H           1.23520493778473   -1.28135092735090   -0.25273857282053
H           1.60806411555159    0.56990537267858   -0.76065950229611
O          -0.72707983803893    2.10747415831277    0.62126595730621
H          -0.70860791706906    1.27614267792619    1.14510860001869
H           1.85626535483816    0.26661873792965    3.10124346412014
H          -1.56686759213435    2.04718347971988    0.15283954067890
N           1.05842905531779    1.38078712445120   -1.21090728038168
H           1.66863139321843    2.06337684157860   -1.64533296422152
H           0.44040533896696    1.81394812863247   -0.47108750128948
H           0.40941889899131    0.92016494029534   -1.91144188028691
