    23
        -45.38083659  Gyration_radius:  2.27603105226 Dipole_moment: 2.727
 S          -1.54327427457971   -0.76466884877320    0.24202212042620
O          -2.08593603044246    0.58221025704617    0.19578999388537
O          -0.96037636988449   -1.15918958955817   -1.03062093417683
O          -0.63912174213875   -0.94487391277827    1.36645460976161
O          -2.74770888180931   -1.76351438893326    0.48727561866232
H          -3.02367595315096   -1.97714237593219   -0.39778949628983
O           1.78875233057132   -2.04057476658950    1.46710226142358
H           0.84803339571895   -1.77338188227051    1.49428716815311
O          -0.98145873240803    1.43832269413326   -2.00942721533813
H          -1.52616529640486    1.25169664474973   -1.20895405358887
H          -0.89598844708021    0.57217131146165   -2.42296563619820
O           1.70045912787564   -0.96249293621048   -1.00186277448553
H           1.94788545438993   -1.43223175683756   -0.18125064729538
H           0.74870128353994   -1.16784284889712   -1.12002800836270
H           1.59933686448020    0.55905135890498   -0.76801538096879
O           0.01186058935523    1.57373188036596    1.71446060693739
H          -0.17145607064742    0.60862216388464    1.75149814141253
H           2.17598376703696   -1.72972662089608    2.28680931656959
H          -0.85181230733615    1.94921301029347    1.51192485626629
N           1.26924887773871    1.57527299865376   -0.62892617581456
H           0.89626139010084    1.67032151438039    0.35556682994672
H           0.43839187753843    1.68780477687088   -1.27822013527656
H           2.00205915753572    2.24722130693261   -0.82513109564863
