    23
        -45.38087157  Gyration_radius:  2.27629725738 Dipole_moment: 2.882
 S          -0.29529875798575   -1.61679569510879   -0.54831622669518
O          -1.43911657510199   -1.09558367826476    0.18037042944601
O          -0.21313603682856   -1.05589398000526   -1.88831610506103
O           0.95402576791683   -1.48896672523991    0.18160198908020
O          -0.53217433480693   -3.17370123811367   -0.71006366892799
H          -1.39933763851278   -3.22209190108766   -1.09875268605966
O           1.42117452048781   -0.66249924611057    2.67566096735522
H           1.26953624631059   -1.11381001955773    1.82145030288917
O          -1.86370602076583    0.95347904013427   -1.62468281764617
H          -1.27091958651352    0.21879668740777   -1.90826398008983
H          -2.40124653280358    0.54572686632504   -0.93624958635785
O           1.92482218130146    0.54838873283904   -1.15567938760482
H           2.35807794709654   -0.46325461540343    2.70783584399525
H           1.73612583894755   -0.23955765735197   -0.59948449410028
H           1.58065124987651    0.28983987959952   -2.01765129261488
O          -0.73342822870433    0.78176823578901    1.93694153786953
H           0.01233768480598    0.37094843345995    2.41618241634278
H          -0.23762851945214    1.67834684694544    0.78656669696318
H          -1.11640312348679    0.04744056101358    1.41101386455357
N           0.01389102663823    2.11258295614816   -0.16780855461356
H           0.13671885633853    3.11697873330899   -0.11199388797832
H          -0.78169979762369    1.84145306389739   -0.81409119050621
H           0.87673383287930    1.62640471937443   -0.53627017024082
