    23
        -45.37184286  Gyration_radius:  2.26819663915 Dipole_moment: 3.129
 S          -1.66230170000044   -0.33869630772450    0.53212195437715
O          -1.50766809493511   -0.18410318552333   -0.91245215399436
O          -1.25582871678738   -1.65234431279501    0.98765953002081
O          -1.03024290158060    0.75331702014099    1.24860648898156
O          -3.21356343585082   -0.23907136329886    0.83796490820936
H          -3.47483685852214   -1.15313333984554    0.88419599813844
O           2.03179712534067   -0.80544019371993   -0.86160440957987
H           1.45720976019062   -1.58376127581546   -1.06410659717262
O           0.03821715572410   -2.52483127546667   -1.16858538519449
H          -0.52312247658094   -2.11971983845166   -1.83536588976291
H          -0.41930340784912   -2.34541511661086   -0.32211280910221
O           0.57179421338049    1.03058425466458   -1.68906032437497
H           0.68420472713116    1.80092586452353   -0.94951961335216
H           1.28245261524906    0.27467775948117   -1.42013638268488
H          -0.32273165272818    0.59363214132106   -1.46773639689852
O           1.25570099290521   -0.53729271211015    1.67502389075933
H           0.43985777554078   -0.00248622962265    1.62455977230147
H           0.94742759044854   -1.41609612345060    1.91352950297575
H           1.94270340132587   -0.68498932090179    0.11270659542690
N           0.71802409054906    2.67338629839615    0.23084118319091
H           0.44522684830134    3.64084383056811    0.12093091826464
H           1.59024068385156    2.63396569937569    0.74276194845300
H           0.00474226489835    2.18604772685894    0.77977728099166
