    23
        -45.37184258  Gyration_radius:  2.26815733376 Dipole_moment: 3.125
 S           1.69090733276160    0.37207156284052   -0.40567459753742
O           1.02232074460074    1.39247388327636    0.39840330320958
O           2.13629573276141   -0.74932585258980    0.39580406602072
O           0.88485529958949   -0.00723684164622   -1.55093508496861
O           3.00757574846014    1.03701850702495   -0.98343575711589
H           3.67288296813416    0.75197405263132   -0.36517606765037
O          -1.55047579835186   -0.83484104888114    1.55486703010449
H          -0.77456194956271   -0.71817493480190    2.15596206144118
O           0.79947922146519   -0.28528863876987    2.65015323565897
H           0.84672308487052    0.67462972930550    2.63857430558653
H           1.36135140451612   -0.56664894111168    1.89969959120046
O          -1.50762767436595    1.35201941854320    0.37061421048881
H          -1.72860705558247    1.09585090408930   -0.64832141118978
H          -1.63770909450406    0.44370011486516    0.92488912622835
H          -0.49701951293029    1.48771763969583    0.38633356430232
O          -0.22364048277011   -2.11655923529845   -0.37003236214792
H           0.16956113818573   -1.40424343269738   -0.91053181662573
H           0.52588258981267   -2.50547720331696    0.08949840804732
H          -1.21979411979327   -1.43305778885852    0.84458196530551
N          -1.79206708677248    0.61047464213989   -2.03276878514520
H          -2.31739978179134   -0.24786717803821   -2.14076498590853
H          -0.79857376459383    0.39162629150962   -2.14493726061850
H          -2.07035894415042    1.25916434008265   -2.75680273867732
