    23
        -45.37890786  Gyration_radius:  2.28752134774 Dipole_moment: 2.690
 S          -1.06386394154484   -1.27697344700204    0.06280056889250
O          -1.41476166940552   -1.38598722708982   -1.33207287292310
O           0.28687213224083   -1.77709560053054    0.33658609382645
O          -1.24322203438227    0.05264906803694    0.61743660177478
O          -2.05560020439068   -2.23208258943404    0.84780801917297
H          -2.33373192514079   -2.82629200783790    0.15849362295903
O          -1.46065103632610    2.24064566171713   -0.94088236222516
H          -1.58760831938639    1.45606725763841   -0.37515985588111
O           1.30120544471146   -0.81085131293169    2.62745826367337
H           0.74208250053852   -1.07961523356146    3.35751517124330
H           0.94720689041734   -1.26337698409022    1.83518827566664
O          -0.15225241937049    0.58656871908331   -2.60813970057515
H           1.03411580196543    0.40047725409566   -1.64901021525964
H          -0.68429623449863   -0.19680353929960   -2.35738524654011
H          -0.65707720968192    1.34188684873625   -2.24207277837357
O           0.90145525309856    1.51134105753996    1.29791160627507
H          -0.98787668219014    2.87979612935247   -0.40314804075248
H           0.00763899647405    1.14212777840010    1.15137394917223
H           1.26525316605389    0.92287797377854    1.98484233211281
N           1.67509037214517    0.14787088679651   -0.81664300911380
H           2.64883681037254    0.06599319255331   -1.08783059439990
H           1.29909513403541   -0.75282661949675   -0.43210157405882
H           1.53208916431824    0.85360274354126   -0.03296825465712
