    23
        -45.37184517  Gyration_radius:  2.268145544 Dipole_moment: 3.117
 S          -1.20794725475125   -0.87164119581475    0.97226463011821
O          -1.25563143978983   -1.92467928048567   -0.02149263710719
O           0.10764185808609   -0.76044145917036    1.59701233322826
O          -1.66853189708757    0.41546272898895    0.48511808867592
O          -2.21825065675544   -1.31285841332267    2.11008210253643
H          -2.30889697662936   -2.24731946161463    1.95379838802255
O           1.81371974034534   -0.08749670967356   -1.48984452252138
H           1.81151672633223   -1.02964046832004   -1.19079011121666
O           1.34407860085938   -2.41655708491876   -0.31574952511774
H           1.61111674327824   -2.28008765354773    0.59741165377186
H           0.36730163470412   -2.35800954554174   -0.29608543492616
O          -0.79937255378991    0.04977031451416   -2.00117338563251
H           0.90696661754162    0.05532201977338   -1.84916547115429
H          -1.04714671005385   -0.86408382566117   -2.16756800783298
H          -1.20658677596867    0.25531856316206   -1.13734462217005
O           1.62147859676800    1.06173480982749    0.70732454215534
H           1.05846740426384    0.35162441402671    1.17473594849788
H           1.81579221673800    0.62209654120581   -0.25117487238729
H           0.93565172626713    1.86470226828230    0.51594664059107
N          -0.18583566134336    2.76224898199073    0.20738125281924
H          -0.21566483516758    3.05945847352059   -0.75966938967741
H          -0.33722969145947    3.56558387695325    0.80251668494829
H          -0.94263740240312    2.08949209584983    0.35646570439609
