    23
        -45.37185038  Gyration_radius:  2.26817032793 Dipole_moment: 3.153
 S           1.04221201454974    1.26371289635850   -0.69463997711816
O           0.22512886338001    0.54649112713354   -1.66880651824527
O           0.29206913128075    2.28015307672535    0.01492292699331
O           1.74544360085829    0.34157278181645    0.17923161367280
O           2.14704489664269    2.04932144486403   -1.51488923729903
H           1.84646163018060    2.95014369556149   -1.44968464057507
O          -2.12826486984178   -0.64750811728361    0.76106924495881
H          -2.37715673840558    0.18213631782746    0.28492502217789
O          -2.18863820810286    1.58760390741506   -0.66272209601552
H          -1.34145604624379    1.96581278144914   -0.35154114911289
H          -2.00766521784766    1.30244685724697   -1.56257694231176
O          -0.67290774284756   -1.70932820128245   -0.95383261567546
H          -1.37636991120291   -1.35095262343598   -0.22881603223825
H          -0.29976108570249   -0.84923637345267   -1.35381705834924
H           0.14197101996986   -2.11311613687658   -0.38211963313636
O          -0.08283495310084    0.40745442625294    2.10769483779407
H          -0.29762840231481    1.34359327750600    2.14845791129686
H          -1.45168724709149   -0.35753345591868    1.41658786102293
H           0.67020514521014    0.36069632834246    1.48695506368584
N           1.31190811352506   -2.39980078452028    0.45596877032850
H           1.98170637686970   -3.08297516559852    0.12872480516887
H           1.08205294138018   -2.60080305721738    1.42094520992147
H           1.73816668886180   -1.46988501293454    0.41796262307851
