    23
        -45.37184558  Gyration_radius:  2.26816586632 Dipole_moment: 3.121
 S          -1.60284482299810   -0.39562054925281   -0.66246580589993
O          -1.51540556092216   -0.46156163743414    0.79403460916467
O          -1.74561376827454    0.96373277584240   -1.14260058207989
O          -0.51580230884666   -1.12657028624708   -1.28737173427331
O          -2.94192946386497   -1.13583267737514   -1.07348649232380
H          -3.53698699795403   -0.41032680816546   -1.23356451327687
O           1.42636656623310    1.58935406032128    0.97927534464472
H           0.56348166788062    2.05448342868528    1.10613439592559
O          -1.12165436549063    2.31348837773256    1.06567916961743
H          -1.51694779035990    1.71476119400973    1.70527469697476
H          -1.38928214880835    1.95327142051985    0.19592159715723
O           0.80834326703457   -0.68627055329181    1.77010860203857
H           1.15567229984550    0.29788944579900    1.52474342066894
H          -0.16502658763538   -0.66757836456013    1.46664667723824
H           1.29437896984898   -1.34009611050000    1.07122187232199
O           1.05137454639315    0.99938559553170   -1.59367549038380
H           0.42739381068027    1.66719772320756   -1.89176829569820
H           1.47869732365873    1.43513289412745    0.00707980127821
H           0.53078857142894    0.17282488773337   -1.58140330054042
N           1.78859348140993   -2.12173145836947   -0.06998406763180
H           2.60033563114844   -1.71742024716047   -0.51947224364160
H           0.98315159537317   -1.98547636749517   -0.68666863983542
H           1.94291608421580   -3.11303674366555    0.05634096855395
