    23
        -45.37184187  Gyration_radius:  2.26818221967 Dipole_moment: 3.125
 S           1.44780499222321    0.75705379925765   -0.70049269564902
O           1.26283678514602    1.00907620466600    0.72690203481535
O           2.01692870165209   -0.55058523619863   -0.95419380580107
O           0.23076543660909    1.02320521784021   -1.44405925611985
O           2.52384565576106    1.80101190212573   -1.21183129470157
H           3.33318844011052    1.30175022513391   -1.17034584929654
O          -0.94785831612733   -1.78689604236629    1.19352843606804
H           0.00436638070356   -1.94651310767577    1.40501365728849
O           1.68968791886579   -1.68512143294346    1.43093951110621
H           1.89023566146556   -1.39286789508283    0.51853903888541
H           1.84845716900822   -0.90727492389948    1.97272256104727
O          -1.07665076403376    0.65912910364540    1.62497783453992
H          -1.69297193379859    1.02865630434099    0.82791199046738
H          -1.10319167363167   -0.40872065058368    1.53145939037473
H          -0.12515034546710    0.89099369301408    1.34023211220081
O          -0.60806025618080   -1.50070678670583   -1.43504946748386
H          -0.98396446022137   -1.80161882683158    0.20847912781612
H          -0.36111391396204   -0.56233392930547   -1.54708587943686
H           0.20477119832504   -1.98187079459195   -1.61401863488200
N          -2.33039377720551    1.45293573901145   -0.42598571518395
H          -2.96359121051073    0.76604815378718   -0.81537004946694
H          -1.48721522694567    1.47293891771994   -1.00580967442586
H          -2.77272644178986    2.36171038563627   -0.45646337217160
