    23
        -45.37890781  Gyration_radius:  2.287687088 Dipole_moment: 2.701
 S          -0.72732287943550   -1.44374733607965   -0.39160902464179
O          -0.75107031635320   -0.57121912090484   -1.56965842218388
O           0.41921203398200   -2.31912143043010   -0.38303298367313
O          -0.89236552675496   -0.67033954187625    0.82588217634306
O          -2.00144507234793   -2.37900792320760   -0.50949188404120
H          -1.62411562958873   -3.16976900093622   -0.88081378896140
O           1.11555728127393   -0.31787622753568    2.58846197089722
H           0.33212591318397   -0.59660383956980    2.07822290771258
O          -2.27994119648014    1.60743766048768   -1.21400021280444
H          -3.18252816169603    1.33502744949974   -1.04359150598248
H          -1.78717232707683    0.78995797211716   -1.43012122829366
O           2.51595702860372   -0.84490542411763    0.35516786805197
H           1.90911329761799   -1.55499312623312    0.06008939242736
H           1.91226091867096    0.33759401200307   -0.41887168142679
H           2.26321556338778   -0.69094388097565    1.28889976362606
O          -0.49423177060525    1.98100048275883    0.78410449098708
H          -0.71600481900411    1.05411635359823    1.00410049006075
H           0.94309305592796    0.58525579048355    2.86375419533999
H          -1.19423421470401    2.22352018007754    0.15031868619984
N           1.25404346273329    1.02202233737984   -0.93443328175730
H           0.70489535868448    1.59000918493956   -0.22135704364784
H           0.53327041996520    0.42244911027475   -1.40513108388449
H           1.74768761007699    1.61013630823641   -1.59688979039942
