    23
        -45.37890823  Gyration_radius:  2.2878641258 Dipole_moment: 2.687
 S          -0.84408237466033   -1.00080064600281   -1.02794106108833
O          -0.18315362019257    0.04009629051180   -1.82095793344699
O          -0.04847075485156   -2.19982975786641   -0.92690609202475
O          -1.28426176134615   -0.47233571180072    0.25072155226528
O          -2.15258850373300   -1.40104469960893   -1.82779916567374
H          -1.86992726582168   -2.19492272709102   -2.26981039632247
O          -0.11770852085013   -1.17700784439602    2.57589217595560
H          -0.67784780368249   -1.06663960354676    1.78482416368046
O          -1.13497153973650    2.49957017167024   -1.31462576589152
H          -0.81689618228045    1.62062363319563   -1.60453302993753
H          -2.06652535523153    2.53031724969262   -1.53645602650069
O           1.87618344680716   -1.70966609263801    0.85347684914651
H           1.28145730283627   -2.09579199613434    0.17759927215306
H           1.94043673631416   -0.26490534202283    0.33378557012722
H           1.32005158768712   -1.66295651415648    1.65846547182622
O          -0.26262458273987    1.83418907920239    1.15836630710300
H          -0.56937370659516    2.42203505742595    0.44359958307631
H          -0.77435812608917    1.01620883700477    0.99757322057553
H          -0.15571569543369   -0.34009896908154    3.04427613470048
N           1.73093420476216    0.69077263040114   -0.12486175187414
H           1.10136604999107    1.26102729468679    0.51637947050448
H           1.13327893395648    0.47941467493181   -0.96058516913755
H           2.57479754088471    1.19174497560878   -0.38048334922289
