    23
        -45.38083343  Gyration_radius:  2.27607514027 Dipole_moment: 2.707
 S           0.17371826142154   -1.15852591990509   -1.28719082820156
O          -0.72383627620953   -1.98843312485953   -0.50278016931263
O          -0.47796422619365    0.05280514378835   -1.75999279966237
O           1.42096633766003   -0.90024134418754   -0.58512395645189
O           0.56495017578478   -1.96576638312742   -2.59271194590402
H          -0.07818741833799   -1.66052751044324   -3.22391129203414
O           2.74663616163899    1.38154019618556   -0.21186685595022
H           2.36833810170995    0.51318334839230   -0.45678674467678
O          -2.64528967624746   -0.27917947000804   -0.05501688008940
H          -2.05353768749671   -1.05610264734346   -0.19112899416095
H          -2.49649206060899    0.25085199112143   -0.84589003111958
O           0.16975929266381    2.17090098066807   -0.27129267293397
H          -0.07748434553606    1.50567995850443   -0.94822298606541
H          -0.47548014104701    1.51564294353049    0.96796794473228
H           1.14496279339153    2.12209122527245   -0.23107771342078
O           0.54906736176383   -1.28875232974472    1.85966813144338
H           3.34880782681114    1.21285479953322    0.51450109771317
H          -0.04817513584826   -2.01764046212874    1.65976934843291
H           1.03742915127054   -1.16704932862355    1.01512673368501
N          -0.99155162929332    0.86934637349228    1.65840517666386
H          -1.30380401724497    1.36340584458620    2.48632136789470
H          -0.35271457588887    0.06106046566537    1.89553055928557
H          -1.80011827415886    0.46285525963418    1.10570351013846
