    23
        -45.37890827  Gyration_radius:  2.28805311905 Dipole_moment: 2.676
 S          -0.79780873126666   -0.90857867272967   -1.14270857970900
O          -1.42305191056088   -1.89297352885817   -0.29363252339305
O          -1.44756873812334    0.40203585916824   -1.04707227220912
O           0.63656105575683   -0.78716383348054   -0.95252825551772
O          -1.01718328939112   -1.40277003501516   -2.63257270037138
H          -1.75243276563257   -1.99806504068194   -2.52972096281170
O           1.87581596387326   -1.71966598821444    1.25113329822143
H           1.48644660381582   -1.56033078440351    0.37085295092037
O           0.13803454338855    2.41543558674506   -1.84898944817041
H          -0.51110487115485    1.71516366770073   -1.63440399677019
H           0.37075293692214    2.28751740693855   -2.76952020436796
O           1.64613517538573    1.42895177498468    0.16904869687517
H           1.49081691076584    0.57413671913840   -0.28032953359722
H           1.35269575600193    2.07731842776205   -0.49734126073016
H           2.54367305606924   -1.04072705187514    1.37033688154342
O          -0.61811091060182   -1.39649737197121    2.20016147538285
H          -0.65211975969470    0.10476755583843    1.87346078356111
H          -1.04416773141180   -1.74502326403576    1.38981586134930
H           0.32169704161929   -1.65478765939714    2.10213097189389
N          -0.66128975808952    1.06737367547685    1.38271550342710
H          -1.09950172990805    1.78651932327300    1.94773041644101
H          -1.16806689313009    0.91936586584862    0.47630254765351
H           0.32977807536937    1.32799735785282    1.09513038043555
