    23
        -45.37890824  Gyration_radius:  2.28806264833 Dipole_moment: 2.678
 S          -0.49772274337262   -1.33700539255723   -0.85623209695361
O          -1.83128229455583   -1.49195601674416   -0.32840778158675
O          -0.39282036769339   -0.20115540265751   -1.77711944137976
O           0.53803538385958   -1.27385853960093    0.15924489729828
O          -0.20790238561668   -2.63416894897321   -1.71946391348753
H          -1.08960295202693   -2.94744533675470   -1.89296400841728
O          -0.01735724171500   -0.72911071003083    2.73889852625743
H           0.17960629940584   -1.12120031282034    1.86748998221213
O           2.12709459862293    0.67906168989438   -2.07109323722353
H           1.20803354770427    0.34259774364773   -2.07363747110792
H           2.66711338752982   -0.02387053984980   -2.43459483272027
O          -2.15607768408954    0.37813657465609    1.54509983647392
H          -1.30594597014226    1.32966669909209    0.68850801919908
H          -2.26342714482767   -0.35643400801085    0.90596468213975
H          -1.53683444129573    0.01997944834770    2.21418499417486
O           1.83171637938463    1.03405263931342    0.59454407713946
H           1.51432090618629    0.10912431355244    0.57116757467322
H           2.23626661907637    1.14353919202066   -0.28577100296653
H           0.75053612096650   -0.20201196365429    2.97046580441443
N          -0.62046633938702    1.76102629501474   -0.02671332141211
H           0.37476200047361    1.67692811778143    0.34124156390510
H          -0.86176440618376    2.71600525044604   -0.26803836715308
H          -0.64628127240048    1.12809920786548   -0.86277449351484
