    23
        -45.37890828  Gyration_radius:  2.28815505908 Dipole_moment: 2.689
 S          -1.11653013843096   -1.11587794269025   -0.52862461683919
O          -0.70922708446479   -0.28315927460003   -1.66438363845036
O          -0.33412671437441   -2.32361353675401   -0.42748009620333
O          -1.16006816882967   -0.33375232359128    0.69391069832880
O          -2.60423872302924   -1.57369003163057   -0.82714882224138
H          -2.46761807132074   -2.45144712357582   -1.16821801236808
O           0.62912422805915   -0.67547509093579    2.68031761794921
H          -0.13639087372049   -0.67557515171315    2.07548273316575
O          -1.44514364333655    2.28576170108748   -1.39894231868895
H          -1.23529694675042    1.34908086501992   -1.58976723178634
H          -2.40050389773406    2.33825477430684   -1.34934458091071
O           2.03067510941022   -1.64093695384147    0.59956378039102
H           1.26148791960728   -2.10566716912169    0.20971406776430
H           1.95060087768850   -0.32398166395739   -0.18854162456175
H           1.73404026230361   -1.41134916310189    1.50443199552793
O           0.10237611699478    2.02933239199268    0.80482861960597
H          -0.44115086658931    1.23103499381022    0.95980174510382
H           0.73527957012298    0.23315361305371    2.97065355642245
H          -0.39434473720581    2.49396082705347    0.10619755734419
N           1.62319339613517    0.54209994747725   -0.74544436518632
H           2.35887960697777    0.93214647469529   -1.32430847312001
H           1.21360733568774    1.26018945344467   -0.07504531269444
H           0.80537547280224    0.21951039358125   -1.31765325852661
