    23
        -45.37890825  Gyration_radius:  2.28813987366 Dipole_moment: 2.680
 S          -0.26101609086917   -1.62277194560066   -0.26057806591292
O           0.37833690956074   -1.05209586827279   -1.45007469556264
O           0.69784444247058   -2.18327772798586    0.65996540516122
O          -1.17296260001147   -0.66720508361438    0.34223816696792
O          -1.14628480201169   -2.83354280150932   -0.77270508548833
H          -0.58118461447460   -3.57541203894041   -0.58302747931079
O          -0.65474209754395    0.51020292342085    2.71017896088671
H          -0.95446718420350   -0.04492010917089    1.96599041961199
O          -1.16978098386458    0.74322209344911   -2.71149571791428
H          -0.60352881324490    0.03289029517001   -2.34731329366924
H          -1.97389195372848    0.31494599893571   -3.00791345460980
O           1.83801576577598   -0.14263039454460    1.94460785210003
H           1.57401294956660   -1.02005998726501    1.59824473971888
H           1.75499794147357    0.67246344364704    0.64425827277819
H           1.06453315979992    0.14510794005926    2.47218188743556
O          -0.98103258149312    1.93196676221683   -0.28899030256525
H          -1.23783662769092    1.04834672350744    0.04253039176434
H          -1.01175973741079    1.38584178907963    2.54604747510901
H          -1.16809666588023    1.86488249821081   -1.24355084142505
N           1.50157144114904    1.05844690928623   -0.33258813327467
H           0.60167812132402    1.62308899833263   -0.26792248518953
H           1.24628503325433    0.22174927450617   -0.91151502717043
H           2.25930896809853    1.58876031707800   -0.74856897947708
