    23
        -45.37890825  Gyration_radius:  2.28791128426 Dipole_moment: 2.687
 S           0.30882733088981    0.46653343340556   -1.56781162124544
O          -1.02062127481171    0.83186038984614   -1.99198828987538
O           0.89397460094077    1.45579859431515   -0.65782500632381
O           0.40594189152614   -0.86931534261776   -1.00725577390956
O           1.21047791281438    0.47792796615099   -2.87124432423191
H           0.69436697723826    1.02425786782481   -3.45487999966973
O          -1.75485619034953   -2.22211749563760   -0.13329710545299
H          -1.00001756534205   -1.84290970488219   -0.62132633556431
O           2.89336998579167    0.45400661611421    0.82883284074361
H           2.23779563798182    0.89328061374597    0.24999166434456
H           3.59910077040374    0.15803763504622    0.25238723522907
O          -2.66032813584869    0.30272015832439    0.04419568096603
H          -1.54508456683055    0.73545629900415    1.00889170760419
H          -2.25477363258891    0.58057871900086   -0.80310774606068
H          -2.60808117287309   -0.67514786412241    0.02154923021723
O           0.88487294207391   -1.18054038980591    1.61215321446412
H          -1.37845074150913   -2.66671635400365    0.62953503419706
H           0.74385427516698   -1.28548566943527    0.64990327332993
H           1.75797660307009   -0.74875472587002    1.65433754383656
N          -0.59962936050341    0.98821814376466    1.46689895749144
H          -0.09183014313597    0.09573089391339    1.74684430229581
H          -0.70457943360333    1.63112470826090    2.24412193559258
H          -0.01230673052224    1.39545548767540    0.69909359200114
