    23
        -45.37890827  Gyration_radius:  2.28821063172 Dipole_moment: 2.687
 S          -1.55942033359817   -0.26753519674326   -0.51626736471350
O          -2.18310000627947   -0.62173389412645    0.73537437011539
O          -1.27289780872055    1.16719894460847   -0.60842998223985
O          -0.37757971474454   -1.04969037281485   -0.83190806738733
O          -2.62502226860666   -0.57912975886900   -1.64736465957712
H          -3.43502560121310   -0.58654629737160   -1.14787513785685
O           0.95079664361700   -2.45982232906672    1.04137635155569
H           0.38010836642526   -2.12933622920018    0.32240507222745
O           0.62722534578231    1.74360926969224   -2.41660758134954
H          -0.13154793193663    1.60058982440409   -1.81530775614940
H           0.33188951779036    1.46817841145841   -3.28545276426239
O           2.03816611639654    0.11264974994730   -0.78274543934964
H           1.26795896478979   -0.48053110556574   -0.89086080579850
H           1.89550330510266    0.77788794603151   -1.48107259492061
H           1.85336096518257   -2.33338871227542    0.74040216555200
O          -0.26639214169300   -0.63046739037226    2.58965351107395
H          -1.11000639219847   -0.67324096810184    2.09350410832641
H           0.22894525257662   -1.41710568223493    2.28091272474106
H           0.38722601170542    0.55732365344147    1.86654806544250
N           0.69552545473136    1.30014935496324    1.14483049503817
H           1.42939715112911    0.88186689152983    0.49732349914901
H           1.01304507021929    2.15804343572866    1.58260295805839
H          -0.13815598645363    1.46103045491963    0.52895881235447
