    23
        -45.37890832  Gyration_radius:  2.28805846746 Dipole_moment: 2.682
 S          -1.40949857151701   -0.17865649975689   -0.86653168198404
O          -0.42017436947595    0.49709775563051   -1.71131365894932
O          -1.40918132998946   -1.60818497759552   -1.06016157402134
O          -1.26977045058749    0.23178007152786    0.51919562168716
O          -2.82861351583827    0.33505385212814   -1.35060475425466
H          -3.11090464126991   -0.38278664734662   -1.90793613309188
O          -0.33881755076619   -1.43344584062588    2.42242394583529
H          -0.85999747737963   -0.88814222917686    1.80370910712739
O           0.25407731840730    2.92883854801758   -0.79285997894146
H          -0.02249508224268    2.09332846488011   -1.22098328880798
H          -0.52329108997779    3.48868001459418   -0.77830590725694
O           0.71889874713331   -2.56980575941063    0.22822440726111
H           1.48967600973810   -1.30267449384409   -0.17374542730005
H           0.41985514054973   -2.40232859263620    1.14584668414040
H          -0.08914838417233   -2.44182950672483   -0.31056078845505
O           0.99086876563823    1.42303010296899    1.33068033805606
H           0.95255617157890    2.21402072771472    0.76198751094975
H           0.09311099904592    1.04653190351483    1.23533808381811
H           0.16878354148171   -0.81641288735712    2.95421670912819
N           1.77540874443281   -0.30943119318100   -0.48908887193359
H           1.68175378195937    0.36315847102762    0.33039816209179
H           1.03596138497749   -0.00296701122715   -1.16702451336706
H           2.70094184832257   -0.28485428311752   -0.90290397171395
