    23
        -45.37890829  Gyration_radius:  2.28802933711 Dipole_moment: 2.680
 S          -1.22399464617234   -1.01143681551060   -0.49735053025050
O          -0.46967199881550   -0.57175303243007   -1.67494719560719
O          -0.74261140712909   -2.26778422536344    0.02306591443404
O          -1.29996892353474    0.04922876543412    0.49120591739908
O          -2.70568010568014   -1.27458765323956   -0.99466740595040
H          -2.70603303434572   -2.22029562977641   -1.10052148996723
O           0.02598394273409   -0.07434928524222    2.83418019028010
H          -0.61249002538691   -0.09897232894274    2.09695099950558
O          -0.68584120866223    2.06627713349428   -2.12864667898314
H          -1.60450218950843    2.28532909068384   -2.28996000591923
H          -0.64782801112854    1.09041443750733   -2.06531919520944
O           1.51283429288823   -1.75064551234397    1.34941192373705
H           1.12737222210211   -1.25504957164751    2.10130470143134
H           0.73714363219982   -2.16416655550414    0.91702369447066
H           1.84266718184790   -0.67979479582455    0.29765766696852
O           0.39580048193646    2.12120075346357    0.35060196986584
H           0.12840874426507    2.47071086070222   -0.51941045617666
H          -0.32133225582569    1.48893594139318    0.55731066678995
H           0.27331127425179    0.84722345580279    2.93784953279108
N           1.80138389362979    0.06006743716960   -0.48874561260740
H           2.68760308739442    0.16354014144584   -0.97076524175109
H           1.44866406861824    0.98172529355911   -0.09013471852338
H           1.03878096432124   -0.25581791485518   -1.13609462670356
