    23
        -45.37890826  Gyration_radius:  2.2879998816 Dipole_moment: 2.690
 S          -1.22159941428358   -0.45315604234116   -1.03532171916343
O          -2.26871846784501   -0.73254772697022   -0.08332421268537
O          -0.98117651348681    0.98461126057062   -1.19124191554649
O           0.02062937802161   -1.15781503019134   -0.77394426890712
O          -1.74789114787710   -0.96787358128675   -2.43898867715128
H          -2.68769933248415   -0.99465915811225   -2.29167094474639
O           0.57136754997354   -2.24791898079154    1.62837173354965
H           0.31251584438906   -2.04388346689448    0.71014414142318
O           1.44815119551925    1.53693899668479   -2.19353739319650
H           1.52662351832331    1.14900112590626   -3.06607569355898
H           0.52150020903181    1.39056342930049   -1.91483989537897
O           2.17449272126375    0.20972625483364    0.04948205951944
H           2.28920931831865    0.78604570417920   -0.72846017474358
H           1.51337691560174   -2.07189773216403    1.68159569971561
H           1.53252358549151   -0.45586101175409   -0.26948595139633
O          -1.22989751953924   -0.38713926957993    2.34889653332475
H          -1.81028107145757   -0.55331647442398    1.57744950796140
H          -0.62096125962366   -1.15430522573210    2.35538803835591
H          -0.39560182798111    0.77460990227632    1.78639619446160
N           0.13890006383406    1.46462815525219    1.14951075372871
H           1.08367445582379    1.04844778789358    0.89068894022920
H           0.22499084885163    2.38676480937565    1.56262551708803
H          -0.39412901982776    1.48903625395020    0.24634171710523
