    23
        -45.37890797  Gyration_radius:  2.28852030699 Dipole_moment: 2.712
 S           1.39483350182180   -0.65351650110269    0.63306938581071
O           2.35806213496201   -0.15652505631393   -0.31888371447976
O           0.91355154449253    0.39646696339905    1.53599277440934
O           0.28173224705737   -1.36672636303689    0.03275668425197
O           2.16573983229715   -1.69857383266207    1.54139177853971
H           3.07046221564223   -1.43665686358527    1.40584203301298
O          -0.33088312051671   -1.12529340039606   -2.58023436359352
H          -0.01039704421588   -1.38175911535615   -1.69510024717519
O          -1.44898007036500   -0.18299928335418    2.67339205333777
H          -1.35834385210070   -0.96932543234079    3.21310843382619
H          -0.54770447378895    0.03638597890018    2.36121371661306
O          -2.16647607941227   -0.27381842922689    0.06635163869633
H          -1.28900813885897   -1.15742587669849   -2.53294854290247
H          -1.38133661388825   -0.85102780949127   -0.01853711497675
H          -2.29562920995086   -0.22819967329650    1.03160595182154
O           1.00297681914851    1.17545591352688   -2.19052287159792
H           1.68871999479288    0.76076213004301   -1.62722380122184
H           0.54817293536568    0.41462092494250   -2.60733203447107
H           0.04074998689847    1.65705142683755   -1.09346162540387
N          -0.53455724829705    1.77599323190431   -0.18657060832902
H          -0.83536749574959    2.73342880634431   -0.04068001644176
H           0.08468786567913    1.43844842798245    0.58983648271019
H          -1.35100573099710    1.09323382305788   -0.19306599238428
