    23
        -45.37890830  Gyration_radius:  2.28792181283 Dipole_moment: 2.682
 S          -1.39416923107063    0.77014559332610    0.48294391651038
O          -1.93628297362288    1.14136609726733   -0.80127822202501
O          -1.53188633893718   -0.66451406527904    0.75118872755053
O          -0.02532631621210    1.20473629216782    0.69633200369908
O          -2.27932958158487    1.50973441459619    1.56987012929952
H          -3.07103770314541    1.69615808406511    1.07591410595481
O           1.58335143727179    1.93140725114834   -1.33997191159432
H           0.96905789459991    1.87066846631040   -0.58448976338942
O           0.18804748770633   -1.54941544357281    2.61382723973155
H          -0.51949263174419   -1.26458261603059    2.00055182115169
H           0.02040859973428   -1.09523241401841    3.44060713377033
O          -0.17192319549313    0.37095295526316   -2.64711013020858
H          -0.94708427334048    0.71678785450593   -2.15808910462384
H           0.54200902060463    1.00853292554434   -2.43884596278178
H           0.13639872865270   -0.86283873801696   -1.78443041085239
O           1.94606157958184   -0.61030317172023    0.78463150132000
H           2.42042266071615    1.58064730519334   -1.02776516625983
H           1.38538602269342    0.19044227525268    0.82013911104603
H           1.64425982764334   -1.11710358211407    1.56094679836768
N           0.24374170845794   -1.57288322697411   -0.97704988766985
H           1.09172865948168   -1.31396854669014   -0.38820590330622
H           0.28199681699976   -2.53144346197208   -1.30589513506947
H          -0.57633817886256   -1.40929425798664   -0.34382090056566
