    23
        -45.37890808  Gyration_radius:  2.28838280755 Dipole_moment: 2.700
 S           0.45942549869905   -1.19045159480509    1.06999614299414
O           1.66268869900624   -0.53098617025555    0.55365484779466
O           0.00291675249677   -0.60461373610865    2.30671717173039
O          -0.56227500715963   -1.27598932559304    0.04193313645604
O           0.88351085344036   -2.67842755112316    1.41281190224033
H           1.02021160632164   -2.62497023056694    2.35296603725736
O          -2.82376259107573    0.18574290571401    0.14645799214674
H          -2.12179375799392   -0.49038506667607    0.19114167097111
O           2.03045292393590   -0.91229253000237   -2.07885464879240
H           1.99576133402178   -0.81919606700137   -1.10518290472310
H           2.14634350240660   -1.84751167595622   -2.25144320528351
O          -1.21630923127675    1.68676023020638    1.69167689161302
H          -2.00132363927390    1.31446080641415    1.23934775943830
H          -0.81410274221083    0.91439570054804    2.14017955514925
H          -0.17943216039865    1.89200321546858    0.57618665212044
O          -0.39398203282270    0.28712433303147   -2.12991726065367
H          -2.94117381509383    0.38245166454034   -0.78565527839837
H           0.45051685241513   -0.04515753794932   -2.48621117685892
H          -0.61834648784228   -0.38044643737833   -1.45109854661950
N           0.58127516459108    1.76225398698832   -0.18017572334168
H           1.19544592027948    0.98472299661814    0.16395795322727
H           1.10768207729386    2.61208273447830   -0.35085093296808
H           0.13627028005706    1.37842934935307   -1.06763802543332
