    23
        -45.37890827  Gyration_radius:  2.2880025433 Dipole_moment: 2.684
 S          -1.52431278165375   -0.41654375413427    0.52159681788473
O          -1.44066988315239   -0.65077323792279   -0.92315387353672
O          -1.21691273825450   -1.60025215352614    1.28655872805286
O          -0.74897913476591    0.75134554511255    0.89973600677751
O          -3.04102387743717   -0.07155938333268    0.82587192979933
H          -3.36624293472587   -0.90709073784754    1.14498350555607
O           1.53498686003477    0.56030571218828    2.31716986642928
H           0.62323971613446    0.66757704541785    1.98696643550570
O          -1.11112419388758    1.61144202158103   -2.33171033712285
H          -1.32271111927811    0.77051076560678   -1.87789636243016
H          -1.86497899487427    2.18545363888608   -2.18998038920622
O           1.43326767126022   -1.89711965462790    1.23258892536227
H           1.42767005691519   -1.36542282734274   -0.20945151376199
H           1.67605853623015   -1.12545673389833    1.78489648768741
H           0.46815032729922   -1.99214693533141    1.37076182911298
O           1.10312851425564    1.71825315280489   -0.78029846555813
H           0.46825257685089    1.55155769170112   -0.05504205384022
H           2.04721070589102    1.26176419321214    1.90878067380095
H           0.51952713448638    1.94674304455882   -1.52705387163003
N           1.17810745923966   -0.88737729995968   -1.14569037072640
H           1.37541743245514    0.15603643038317   -1.07430001505848
H           0.13440784472516   -0.95284762545603   -1.22861680858140
H           1.64753082226988   -1.31439889806096   -1.93671715457416
