    23
        -45.37890802  Gyration_radius:  2.28842119963 Dipole_moment: 2.703
 S           1.17616335352408   -0.32299068645921   -1.13392164932638
O          -0.01048257682413    0.19663255236689   -1.82038451783951
O           2.12285510882135    0.71770963954236   -0.81504355393312
O           0.79581680521010   -1.14625730849139   -0.00005166554760
O           1.90055305805694   -1.28146202154892   -2.16748218898529
H           2.58571032488823   -0.71367826799546   -2.50490938231365
O           1.19823210718704   -0.35216711816504    2.54333872004106
H           1.22846619832442   -0.74135328079475    1.64916174692821
O          -2.14042765545373   -1.42754406353851   -1.63044019222861
H          -1.94033476999700   -2.26501489507093   -2.05050955992020
H          -1.37414265817768   -0.84541799210532   -1.80901826835418
O           1.16940095412354    2.03130611716001    1.30160765352759
H           1.27863986371770    1.32395007055549    1.97036154413312
H           1.69021692381967    1.71390907482383    0.53513803802200
H          -0.24617232804524    1.82630934288147    0.73979155609832
O          -1.68672401956761   -0.96744337933476    0.99660031752699
H          -0.76600917210279   -1.20657974731018    0.76875741708595
H           0.40767869149234   -0.70529659845163    2.95762669711429
H          -2.18391858121293   -1.25480334344040    0.20869252878349
N          -1.11766386104204    1.47745151599223    0.20462592394835
H          -0.76623211570803    1.14448378462473   -0.72588483838484
H          -1.82566773940654    2.19674566947400    0.10556119490086
H          -1.49595791162361    0.60151094528783    0.67638247873446
