    23
        -45.37890751  Gyration_radius:  2.28804605775 Dipole_moment: 2.729
 S          -0.87216025489655   -0.05207069330243   -1.41712847099087
O          -1.24310330858084    1.33692501758735   -1.53520444291942
O           0.54343273445837   -0.27671316061506   -1.72620417460922
O          -1.22299432317014   -0.65380467507989   -0.14333145209215
O          -1.69509203125521   -0.82907855027577   -2.52645594227317
H          -1.89420472075702   -0.12979740659991   -3.14039345822804
O          -1.79093964881505    0.82986414455280    2.03391520861620
H          -1.79024101820111    0.28621423646356    1.22384965689598
O           1.49530752061462   -2.56162662021354   -0.68448337314116
H           1.01328047807681   -3.30275140871305   -1.05366026332383
H           1.17905841813809   -1.76831038965996   -1.16244918945342
O          -0.31637283680321    2.58571732607560    0.63111051936112
H          -0.91130736300690    2.18159302221566    1.29608084344448
H           0.91165177275045    1.66351894977989    0.58874648157366
H          -0.72357518648038    2.34547569460136   -0.22688372653380
O           0.71243873681804   -1.32060655793090    1.58861985904135
H          -1.39417892785280    0.28510582748943    2.71727791121893
H          -0.12325042865989   -1.18818340173477    1.09786087973851
H           1.18041109802855   -1.97748122586858    1.04087880321824
N           1.60631021419528    0.85570936103640    0.40771207301951
H           2.57345844955599    1.15370027710107    0.47305189905422
H           1.37393628888012    0.48940205503223   -0.54735332405513
H           1.38813431694356    0.04719817807267    1.06444368248590
