    23
        -45.37890799  Gyration_radius:  2.28840059355 Dipole_moment: 2.714
 S           0.70118060117501    0.61035143735352    1.38205475758303
O           1.49560236584175    1.67071543142689    0.81141112736448
O          -0.72881950460211    0.93342012410064    1.39605506183665
O           0.92925384695625   -0.69088380663063    0.77980748110653
O           1.14228516419183    0.49135556945661    2.89960067894962
H           1.53392662150331    1.34536418294240    3.05081150382847
O           2.10808115617103   -0.96815761223259   -1.62752927920534
H           1.86984845505162   -0.90475636101758   -0.68353284373783
O          -2.30359679723815   -1.23514294747998    1.56349758183164
H          -2.13042288742498   -1.69141436088222    2.38790052141117
H          -1.77795178425357   -0.41014113390598    1.59523767455848
O          -0.98531143090787   -1.80792851037304   -0.72857575350985
H           1.60639857918728   -1.70816016975996   -1.97665447136049
H          -0.19128065878888   -1.59829499676529   -0.19710597868775
H          -1.68228508877717   -1.88476513980631   -0.05123537371776
O           1.19000839437918    1.54949644335211   -1.83533448658130
H           1.66686467912473    0.70925469818340   -1.99681224194283
H          -0.27199690813629    1.13525186080480   -1.60664677624093
H           1.43210754354448    1.78538311149316   -0.91593824738751
N          -1.20342448798182    0.77333283735281   -1.19550538841039
H          -1.21345113620325   -0.29057732358620   -1.22483642041209
H          -2.01287700725877    1.17815493010226   -1.65305030593571
H          -1.17413970555135    1.00814173593355   -0.17361884132036
