    23
        -45.38134529  Gyration_radius:  2.27260019074 Dipole_moment: 3.490
 S          -1.71564610191062   -0.18007687926959    0.32988372232673
O          -0.95893727259383   -0.48143397497365    1.54496910191808
O          -1.78319256262809    1.25686680523282    0.10592316531277
O          -1.24966619839661   -0.91396018819073   -0.82122650960275
O          -3.19782080092539   -0.66296219549590    0.60389206261967
H          -3.47172161345845   -0.10211913092852    1.32235292138440
O           1.14479343856223   -2.11325603823604    1.74260723792010
H           0.29807663672825   -1.62267815778429    1.72307499803966
O          -0.61768527049558    1.35771743715768   -2.23986228639134
H          -0.89076313140105    0.48368268228995   -2.53911692109241
H          -1.13109173009024    1.47953305602418   -1.40813560829187
O           1.28852451303138   -1.73975924219405   -0.91638201546339
H           0.31849757458631   -1.63494332166541   -0.99769481128432
H           1.65131872339949   -0.24596319416462   -0.98645920945695
H           1.41444986663140   -2.05038416645400    0.00219210372550
O           0.65723462199476    1.57365042685153    1.35950242797731
H          -0.00787003041713    2.22194387868075    1.10438033069958
H           0.11898165785971    0.77589166372449    1.56555508714715
H           1.65113837983671   -1.73800822157151    2.46470931632634
N           1.66057765635725    0.83303306253437   -0.99649500589967
H           2.54403637648100    1.20589152695424   -1.32458515621490
H           1.42679955539880    1.16881781923010   -0.02425560880244
H           0.84996571144307    1.12851633225140   -1.61482933289517
