    23
        -45.38134566  Gyration_radius:  2.27246726659 Dipole_moment: 3.505
 S          -1.55042204230183    0.21565499747584    0.79843818674850
O          -0.51066584569198    0.88773766304798    1.57759921053365
O          -1.90500239359036    1.00028945202409   -0.37549078546558
O          -1.22590681609074   -1.15559583913141    0.48975338820116
O          -2.83644362393078    0.17868151220859    1.72026463211707
H          -3.04447869038733    1.10096778721272    1.82870845105356
O           1.83428674346468   -0.14368127241310    2.32926403104298
H           0.93154756280712    0.20705566147461    2.18782096762412
O          -1.30312289750230   -0.75089043137699   -2.23061675162371
H          -1.48293732149147   -1.53788343073254   -1.70489847653543
H          -1.63906902503061   -0.02055265579128   -1.66138386099817
O           1.33519320138789   -1.90131870757429    0.35675214604845
H           0.36679487756018   -1.84326338936072    0.48863070027385
H           1.41799897495702   -0.98764070578326   -0.87840331546474
H           1.70575795497337   -1.42316897778268    1.12513844119025
O           0.66019494795727    2.02270879248958   -0.47398923702063
H          -0.14171056256134    2.29711027783675   -0.93142996601769
H           0.31834102381379    1.67739575661110    0.38196254414988
H           2.41287720724099    0.61996004616964    2.35696485590466
N           1.24367172265260   -0.28344617640746   -1.67731497078975
H           1.17104014529136    0.67883054433426   -1.25156062054996
H           0.28136341731075   -0.50972958918525   -2.06409047186436
H           1.96069144915597   -0.32922129535175   -2.39211908855706
