    23
        -45.38134562  Gyration_radius:  2.27247955189 Dipole_moment: 3.505
 S          -1.44885195836603   -0.90598990383670   -0.40933064682800
O          -1.13645792683736   -0.54234127485014   -1.78401324889154
O          -0.44296757079847   -1.82282844969466    0.12677251019508
O          -1.68248574232021    0.23466996743497    0.44216518819893
O          -2.80551554555188   -1.71967453899112   -0.45651767523928
H          -2.61480534483751   -2.41076525992582   -1.08245928917902
O           0.97259924273082   -1.50395293821591    2.36780232684058
H           0.37212682400757   -1.71069255696788    1.62306595968778
O          -0.91876795623567    2.05173831835660   -1.47836830824433
H          -1.54078465494507    2.13265879488449   -0.74721940857105
H          -1.03459864306589    1.11748434488733   -1.76828215525467
O           1.55828249012730   -0.85588341560204   -1.26187165698714
H           0.90631087804966   -1.32615129676746   -0.69397406963724
H           1.08807847762016   -0.76177175425204   -2.09715477811603
H           1.79780074961706   -1.95127458222428    2.17372319868793
O           0.25796257125551    1.07136210375513    2.07546970511977
H           1.02075870607997    1.44410221887420    0.79245789099917
H          -0.59156755047464    0.83494666540857    1.65013971359099
H           0.60074972211217    0.21733286002092    2.40646153919843
N           1.36471612904854    1.59023326403135   -0.21994738940171
H           0.52354642195978    1.93221506723049   -0.76973143136432
H           1.61240136430298    0.64537220908931   -0.61802435544719
H           2.14146934652578    2.23921016735785   -0.27116363935831
