    23
        -45.38134551  Gyration_radius:  2.27248751923 Dipole_moment: 3.495
 S          -1.58927373534788    0.63994768245233   -0.38944516017817
O          -0.57228919104808    1.62569691147653   -0.75551806004048
O          -1.64442225077187   -0.43439644528019   -1.37039146888185
O          -1.45335847918088    0.16607855520005    0.96623758894130
O          -2.97919946313634    1.39290851164929   -0.46733558990050
H          -3.04240785785652    1.62269631574649   -1.38876237824994
O           1.44306773041804    2.47393843918177    0.77615634913847
H           0.63906709119506    2.28461237255297    0.25103331814203
O          -1.08651757512084   -2.45310960169935    0.20569135706363
H          -1.37386843826447   -1.82130044802480   -0.49323858884850
H          -1.46466375533952   -2.07797632366908    1.00835545988680
O           1.04150394112166   -0.08441391894078   -1.91346941950283
H           2.12869042493001    2.68827405568283    0.14151552141188
H           0.36566374609938   -0.58329257545629   -2.38464019732611
H           0.53342793318356    0.66548600069528   -1.52865468420676
O           0.94384941721317    0.21299255416868    2.14286900621346
H          -0.01074152431173    0.24098984504713    1.92735044541424
H           1.34523167258057   -0.85147275054035    1.10681606630092
H           1.27736285599512    1.08219927186684    1.84358009826618
N           1.40074642447450   -1.54870446665635    0.28505912414903
H           1.42840131036814   -0.99295331980140   -0.61100233581506
H           0.47724570822540   -2.07216680549061    0.28060861286914
H           2.19248402457575   -2.17603386015782    0.36718494514846
