    23
        -45.38134559  Gyration_radius:  2.27248308865 Dipole_moment: 3.499
 S           0.89417730621799   -1.45804928046047    0.40162559238284
O           0.81560343951196   -1.74946607474406   -1.02257219428330
O           1.74245255074023   -0.29190842322352    0.64725581522801
O          -0.39843241604580   -1.35824919552199    1.03422491823537
O           1.63148540780815   -2.68750490468007    1.07235640932812
H           2.43760961249527   -2.74872093200624    0.57034553872955
O           1.07146125709589    1.90469952375250    2.00813467403132
H           1.38600949184261    1.05935025542459    1.62812029085876
O          -1.77513604677425   -1.51118149135470   -1.34297878232606
H          -0.80979726118445   -1.70458564230469   -1.37340985605627
H          -2.02395332662859   -1.78055260592123   -0.45214935149402
O          -1.43442015086103    1.05142514902750    1.53794537349835
H          -1.51637513870277    1.20812108910265    0.00959155425191
H          -1.16410419122568    0.11055541486021    1.55114798180730
H          -0.64292935925111    1.52740452050861    1.85935571065324
O           1.15745272230015    0.93145643036763   -1.59553972034483
H           1.20060510350030    0.15715484231440   -2.16673183594297
H           1.59114515653917    2.59235915965274    1.58889988407124
H           1.47837596990022    0.58586756392057   -0.73169541821399
N          -1.44900642647928    1.10151830527752   -1.06218546537340
H          -0.43437875389404    1.19552105751141   -1.33455924352630
H          -2.03654008006156    1.76678719686888   -1.55145730871629
H          -1.72130483684639    0.09799804162253   -1.27572456679790
