    23
        -45.38134546  Gyration_radius:  2.27254031253 Dipole_moment: 3.494
 S          -1.16622476238581   -1.13581836365833    0.66028017101497
O          -1.87382778502132   -0.12208628831734   -0.12175104877695
O          -0.52638181835605   -2.10910006042922   -0.21315109450400
O          -0.26735609576404   -0.56911821516398    1.63582182748952
O          -2.27657120840176   -1.92019544678848    1.47087372978909
H          -2.79146688055407   -2.32676131392275    0.78142611419979
O          -1.56130140557982    2.52349582573936    0.05284690751302
H          -1.79271913449659    1.57259553728318    0.06799034574720
O           1.95916012962737   -1.76218080997342    0.54426333093172
H           1.76554698983211   -1.50065785142649    1.45100171123239
H           1.08297007788726   -2.05765458642254    0.20491585940007
O           0.76744353318497    1.85775342860638    1.22003185353303
H           0.39398013494499    1.03454635824851    1.59601792269570
H           1.51385499252674    1.21084139814587    0.04050976818638
H          -0.01395444820477    2.33267964472432    0.87342431385217
O          -0.22874893388686   -0.17404968971373   -2.16154541838321
H          -0.93122909981516   -0.05822885376699   -1.48209143207915
H          -1.75928119472349    2.82954868083296   -0.83361007772006
H          -0.12701063809298   -1.13084091257703   -2.20502709842730
N           1.89698078970181    0.55867371144252   -0.72927719921424
H           2.72016551955232    0.94043243166116   -1.18068009148600
H           1.11834309498135    0.37581492979069   -1.41688086598861
H           2.09762814304070   -0.36968952431729   -0.25538954900409
