    23
        -45.38134520  Gyration_radius:  2.27255682821 Dipole_moment: 3.495
 S          -1.65010463659939   -0.00271742097000    0.60140692095907
O          -0.74720415439074    0.41501390432548    1.67396497378382
O          -1.86536789733799    1.08256335801885   -0.34478108202081
O          -1.24499974531766   -1.23523387340890   -0.02916226095177
O          -3.04724830966106   -0.28523728426498    1.28917262671447
H          -3.28834030263561    0.56863233755538    1.63340300532973
O           1.49838418450672   -0.81380295326034    2.43114757813140
H           0.61482304565497   -0.42642844807906    2.26596444159569
O          -0.96253288380250   -0.08286110743787   -2.51216426217494
H          -1.18775769112985   -0.98421990289718   -2.25765796798905
H          -1.39561490476360    0.46119606037079   -1.81451747140568
O           1.33207734916203   -1.93523981205748   -0.00697641170774
H           0.35340017729432   -1.90815207788739   -0.00097753403691
H           1.55460908606535   -0.71183378613575   -0.91338476317803
H           1.57884531148273   -1.69703763794579    0.90887461687573
O           0.65506398123770    2.07069178498755    0.20381916931217
H           0.21250263920346    1.50196542590837    0.87412395045245
H           2.04375811960792   -0.09714884432260    2.75942435654392
H          -0.08662398292544    2.46659033349154   -0.26605574545555
N           1.46915988231031    0.18959339947352   -1.50035328833786
H           1.30896446539519    0.99455804828556   -0.83772004455438
H           0.57614134619935    0.08898193398415   -2.06547959585690
H           2.27806492047323    0.34012656226159   -2.09207126204092
