    23
        -45.38134536  Gyration_radius:  2.27261215187 Dipole_moment: 3.492
 S          -1.51296574313406    0.87918447977986    0.14593392516713
O          -0.82223253148678    1.94147217376540   -0.57097335005247
O          -1.71360570783400   -0.28457984532406   -0.71742875653179
O          -0.89372898618653    0.54690320811414    1.40569192645092
O          -2.95772399752580    1.42992954883342    0.48424751951755
H          -3.28728074567006    1.69426457051238   -0.36862949129103
O          -0.97860122904446   -2.79721970396164   -0.19461486775363
H          -1.37813781860430   -1.91685842639691   -0.34716136363440
O           1.29443947812840    2.15492964786394    0.96064128541552
H           0.86792067536108    1.88442779122670    1.78098405207332
H           0.53866073675792    2.24680731386641    0.33566605224475
O           0.46626988860067    0.06051586448029   -2.13086505986040
H          -0.81350180785462   -3.16658772816879   -1.06344304545636
H          -0.38389881032774   -0.18315398897984   -1.69900606602751
H           0.39051016560994    1.01534203204361   -2.23239587179968
O           0.66624231375230   -1.61417915768323    1.57294322909586
H           1.61935346170035   -0.85771722033619    0.63133191077773
H           0.03925055662974   -0.87887422673347    1.73047684690487
H           0.14823282302537   -2.25537648337779    1.04689733227294
N           2.10134535710986   -0.16125888639764   -0.03738750988041
H           1.95260722491845    0.80163287205990    0.38387209136479
H           1.57251933893081   -0.16821689274074   -0.95010502870735
H           3.08432537713969   -0.37138694245101   -0.16667576028994
