    23
        -45.38134509  Gyration_radius:  2.27270232144 Dipole_moment: 3.490
 S          -1.18424558494325   -0.02127040121724    1.29637768345864
O          -0.39300974811765    1.05765409635908    1.87020398572490
O          -1.83258011375546    0.41183525356470    0.05856408004170
O          -0.44501375239257   -1.25074108897941    1.14580278300051
O          -2.35171234741923   -0.31931037459482    2.32267829707530
H          -2.76201077842048    0.53297408444123    2.42782735539674
O          -1.67688920558390   -0.78824842115895   -2.32119626859696
H          -1.86022390957544   -0.41116965770222   -1.43681840313411
O           1.95686881957678   -0.10327674073173    1.84502067168320
H           1.14543356350338    0.43689722237427    1.98668029056718
H           1.63835721824182   -1.00685606149984    1.94561604667206
O           0.05809679727015    2.08077978090666   -0.65550666398922
H          -1.77926454395643   -0.06604379167999   -2.94287490592316
H          -0.72924024403744    1.50872129857382   -0.50919639784563
H           0.20958644198506    2.46529322952711    0.21446233510589
O           0.51735527517664   -1.91829488260585   -1.25434369582967
H           1.43739007474438   -0.69445683443033   -1.09922799639792
H           0.13910162980501   -1.90359410816690   -0.35142909832514
H          -0.23602488176785   -1.67480504327982   -1.82815692611191
N           1.94632403324834    0.20357183224864   -0.78487740240336
H           1.27151456137228    1.00889774281911   -0.87837372189976
H           2.80112210725132    0.36211221676378   -1.30578042016928
H           2.12906456779426    0.08933065850388    0.25454839189801
