    23
        -45.38134547  Gyration_radius:  2.27234523701 Dipole_moment: 3.500
 S          -1.45057010237207   -0.77923080594747    0.61514075355723
O          -2.16517949377239    0.26738177962532   -0.10139463933358
O          -0.78039648108632   -1.68352060702476   -0.31925748049078
O          -0.56918792722575   -0.26925905969171    1.63691441222655
O          -2.54681904496313   -1.64729403774086    1.35643496502353
H          -3.12735455699984   -1.90283768507824    0.64691557622833
O           1.81115287553269   -2.32507056144153   -0.32978908360770
H           0.84079986914076   -2.21674001086580   -0.26199468548631
O          -0.93821995782217    2.35633064543023    0.89896060220831
H          -0.73082048363987    1.96686498633382    1.75526647624956
H          -1.53514949350989    1.68888716794437    0.48845403643784
O           2.05042297820976   -0.09178776065417    1.14755230253739
H           1.16223143540660   -0.20427616900550    1.54373812645789
H           2.20589735242073   -0.93495163760089    0.67702119228972
H           1.66742361402294    0.98251742376962    0.11497360701658
O          -0.31812287045268    0.13255577599648   -2.15160916271722
H          -0.43561814923126   -0.64905662696758   -1.56513455410499
H          -1.17831004899983    0.56384198631589   -2.11046350199935
H           1.99489406812819   -2.48485241024882   -1.25687727599506
N           1.16550006729677    1.66566188809945   -0.55286483457549
H           0.69628971239287    1.09654219601535   -1.30681590361468
H           1.79667846889524    2.35883635794046   -0.93791198690654
H           0.38445814862914    2.10945715480078    0.01274104859989
