    23
        -45.38134552  Gyration_radius:  2.27240478546 Dipole_moment: 3.498
 S          -0.87047082415107   -1.41858808771412    0.56365333013643
O          -0.72046006532470   -1.89928146039636   -0.80232592976067
O           0.42671959478196   -1.35342630355165    1.23670456502631
O          -1.61573803100170   -0.18688738816130    0.65469638811209
O          -1.71201115167637   -2.51352147614840    1.33676781480841
H          -1.20943740819491   -3.30807996465401    1.18889336391180
O           1.48350681650710    0.77762399252071    2.44844100046940
H           1.06140942244838   -0.04820978527589    2.13565848834522
O          -1.70787707694461    0.17014650308217   -2.07237224052849
H          -1.38066785663520   -0.70005542503382   -1.74685996836248
H          -2.31823762921675    0.44698300958922   -1.38038199225941
O           1.80953583330366   -0.79550836375176   -0.91870525814062
H           1.42637690870010   -1.01340313150824   -0.03875284925646
H           1.37026568409319   -1.42016775097462   -1.50561848312371
H           2.42681383280559    0.65205515113608    2.33362004850943
O          -0.30977586990680    2.12236264449131    0.96360145455870
H           0.37335292991261    1.86052657934068    1.61251189235071
H           0.23566336603396    1.87055751348562   -0.45303242379712
H          -0.94869140339015    1.38081706684854    0.98335605739226
N           0.50272097187588    1.47343859866625   -1.42021689977052
H           0.90283545930363    2.17935756660145   -2.02747829046189
H          -0.38734629267594    1.05932546826764   -1.82414580059232
H           1.16151278936402    0.66393503313746   -1.26801424757190
