    23
        -45.38134543  Gyration_radius:  2.27252673729 Dipole_moment: 3.494
 S          -0.90215553549307    1.06429477804060   -1.06815554024522
O          -2.03515920693901    0.20155142281417   -0.76583709364364
O          -0.48880672235132    1.81325137588971    0.11857959568021
O           0.18936599778034    0.36780107721728   -1.70409028982763
O          -1.41920684399477    2.13914426639394   -2.10839018410921
H          -2.17101663883048    2.51686605075803   -1.66358157351407
O           1.96172649223306    1.89091641886819    1.17501814519076
H           1.09511785562630    1.98884566077197    0.73072556412435
O          -0.95758159862350   -2.11120468545022   -1.36615982986667
H          -0.35524145343684   -1.78382805217851   -2.04294611070642
H          -1.52120549237371   -1.32743316439054   -1.17025807961725
O           2.30941814786337   -0.36096996501232   -0.25245251832822
H           2.43351942328517    0.43469070975657    0.30228244060146
H           1.34315611270085   -1.31732353250159    0.46808002200848
H           1.69152923823356   -0.06528636745264   -0.95198012305642
O          -1.16329249185568   -0.04103084307246    1.84412638865099
H          -0.87963399070720    0.74205636329103    1.31989261799449
H          -2.00371766684651   -0.27907127073086    1.43828393172451
H           1.79645941631246    2.02668890123291    2.10932176509107
N           0.49288852892780   -1.87078021013629    0.83586558703366
H          -0.11189447944074   -1.20708416319373    1.38924411163902
H           0.76853632981701   -2.67852576962113    1.38240517386953
H          -0.07280543188598   -2.14356900129076   -0.01997400070118
