    23
        -45.35869278  Gyration_radius:  2.35965560379 Dipole_moment: 4.214
 S          -1.11964508592661   -1.10320866222112   -1.19440890697018
O          -2.22702596434073   -0.62049336889348   -0.35248010776569
O          -0.43047549661906    0.03168802139053   -1.80465413824529
O          -0.24515159675601   -2.01376695281796   -0.51766455924386
O          -1.82374736964586   -1.88826851227250   -2.37021324547568
H          -2.52163394527270   -1.28585293760298   -2.60369960880127
O           0.20398637114847   -0.21090751753644    2.79120350963268
H          -0.18578515212250   -0.94151199694689    3.27506920332201
O          -0.33570146705192    2.26051038223841   -0.47961734256996
H          -0.88256663814366    2.89798257667533   -0.94219582917981
H          -0.32350396267952    1.44065600825492   -1.04314244502620
O           1.76038664037138   -1.33774707578985    1.12730663515655
H           1.10072856389092   -1.78336651994802    0.56381164117578
H           2.15316974565862   -0.65849540937320    0.52902209840842
H           0.89085883414022   -0.63182168008983    2.15815359199114
O          -1.49351080950735    0.96477348520664    1.39487960933773
H          -0.99177639295315    1.60731457046720    0.78820736939246
H          -1.86921216284723    0.24838605450440    0.71313126270820
H          -0.77351921083191    0.47915728145943    2.01465937911683
N           2.31645799151010    0.47742188469155   -0.79026771359685
H           2.18442858845164    1.44717501160082   -0.52965294658248
H           1.49552900818008    0.19458086012427   -1.32133096029782
H           3.11770951128883    0.42579450684473   -1.40611647651866
