    23
        -45.35869274  Gyration_radius:  2.35966894978 Dipole_moment: 4.215
 S           1.31898291530108   -1.36168927203973   -0.55072463194186
O           0.04302743577211   -1.85461853498444   -0.03669876149876
O           1.12731431207335   -0.78570860405022   -1.89218928292859
O           2.00563441363020   -0.48629444220943    0.35153534900716
O           2.23028025937162   -2.63003044752874   -0.78582084480562
H           1.80723349113219   -3.02505286036582   -1.54037754061709
O           0.19927488332598    2.77850979300500   -0.34366458173312
H           1.00914532263519    3.19589025145105   -0.64311807587962
O          -2.12303795214065   -0.61791991003723   -0.75150056250634
H          -2.61934946844244   -1.20610048763128   -1.32343075956458
H          -1.33867318625904   -1.13745231958876   -0.42789135751280
O           0.89804054135143    1.51528435005268    1.74827898598703
H           0.13576887017405    0.98808540036249    2.08681206161177
H           1.47881387501885    0.84288345424157    1.34591543224526
H           0.43498466276915    2.31728060247301    0.54039977270451
O          -0.55953194096951    1.01917021605203   -1.93804356662843
H           0.21477671241146    0.30007772011426   -1.98201776803351
H          -1.31256953012870    0.50769280960677   -1.48620146534798
H          -0.24994084502767    1.79196139617914   -1.27049030511659
N          -1.02643498733522   -0.30791896787888    2.25156555871164
H          -1.17560870528763   -0.74180289202477    3.15346031428442
H          -0.56500107907188   -0.98744390923843    1.65049833969088
H          -1.93312999006796   -0.11480336323072    1.84370370850433
