    23
        -45.35869151  Gyration_radius:  2.35928953709 Dipole_moment: 4.217
 S          -0.99365873419654    0.97860939562511    1.39557233242438
O           0.01367239543050    1.73606473883752    0.65588150622338
O          -2.16144671350445    0.72881063930654    0.53452741936174
O          -0.48377083877633   -0.20573102902171    2.01933909747553
O          -1.52899931041232    1.93431832126349    2.53298427842322
H          -2.00438873182165    2.58207008778950    2.02418589365143
O          -0.49479916544619   -2.61512896446199   -0.89291955295094
H          -1.11040922734510   -3.19512065049094   -0.44075076467990
O           0.19269896822454    1.33626271351433   -1.90219761874785
H          -0.11065833408245    2.13177115385086   -2.34318553020647
H           0.18906880173821    1.53720361442939   -0.92791323753891
O           1.18477596516509   -1.98466751074965    0.90779653068251
H           1.81942518642346   -1.31792862175901    0.55250029421072
H           0.60317926465566   -1.45896188947209    1.48802698384045
H           0.23689087047884   -2.39947961320805   -0.20884660423644
O          -1.58163085339620   -0.46935837693302   -1.54656219130103
H          -1.91201391133560   -0.01255531258153   -0.65130542483055
H          -0.84559023340633    0.15846064651614   -1.85699665824209
H          -1.12462921278649   -1.39927853379925   -1.29100531810598
N           2.48461835897148    0.21872694106466    0.04837279801303
H           2.47083569582678    0.37423491270553   -0.95232719832958
H           3.38445422262448    0.52077474215589    0.39899900539320
H           1.77237555697126    0.82090259538306    0.45582395952538
