    23
        -45.38134563  Gyration_radius:  2.27246602177 Dipole_moment: 3.503
 S          -0.65392804618830    1.31969621278906   -0.95813386688915
O          -1.57271266573498    0.31887287227538   -1.48133217005814
O          -0.91777653286708    1.57710249202999    0.45748772729960
O           0.73054734653590    1.01736797191611   -1.22751671575802
O          -0.97798069605956    2.66935150335154   -1.71863458718532
H          -1.91117354758912    2.77706235780727   -1.56645068379859
O           0.84567230155026    1.43553038401308    2.45668243450593
H           0.21872079546588    1.62937701504339    1.73050557330912
O           0.17609511734637   -1.48033793779898   -2.23980064118576
H           0.89229669627428   -0.86606256446468   -2.43422348718755
H          -0.59134736688306   -0.88463517560967   -2.07749947381928
O          -1.73069949811479   -0.85093468431668    1.01655566338597
H          -2.26922141083877   -0.97911488810531    0.22835277732743
H           0.30858622010064    1.17629177599521    3.20708659459537
H          -1.46623368476819    0.09480851575946    0.95083485406649
O           2.24339648364648   -0.04436664711719    0.70056501828749
H           1.88817854739371    0.44940721756879   -0.06659933727002
H           1.94993624406204    0.47930746128650    1.47265451371986
H           1.33788539423282   -1.28140203045056    0.57117207449993
N           0.57267098427537   -2.00175263547142    0.32585870191509
H           0.46030757198176   -1.96386528598556   -0.72896630022927
H          -0.33829833758868   -1.65817931449049    0.73159772322306
H           0.80507807376791   -2.93352462603967    0.64980362725347
