    23
        -45.38134511  Gyration_radius:  2.27257288033 Dipole_moment: 3.492
 S           1.52193731134546    0.74829555223454   -0.45607553820025
O           0.91834311076550    1.51231502338182    0.63572001615829
O           2.13131541698183   -0.47532779745844    0.04474535041414
O           0.61591729454472    0.52374652309347   -1.55592451263006
O           2.70083774474820    1.64238264055105   -1.01773229820154
H           3.28819099858347    1.70849148856358   -0.27190307010876
O          -1.60331212408336    2.37937585270880    0.76420894187129
H          -0.64594912900731    2.19449827318347    0.67854659888519
O           0.74054780247533   -2.21651931679257   -1.33567957690440
H           1.38785172183385   -1.69645621978902   -0.80579684416505
H           0.58071899842740   -1.65274251287854   -2.10026602601105
O           0.27431735818569   -0.57309234696166    2.08699261052035
H          -1.78766455875457    2.38773241016436    1.70481790647917
H           1.09415191377128   -1.06205531706033    1.95882684147152
H           0.46632108245308    0.29367378390043    1.66230121085913
O          -2.01588635769468    0.48968085155180   -1.10371219616454
H          -1.74489101689609   -0.79152937209951   -0.29558999100618
H          -2.10464053774910    1.23993340273424   -0.48280880116080
H          -1.11522541972376    0.59568081033532   -1.47264052102892
N          -1.31525038891222   -1.63189694239043    0.22744292435182
H          -0.56819212845649   -2.02726473735564   -0.41477041807325
H          -2.01072495447858   -2.32674650403595    0.47366001118813
H          -0.80871413835880   -1.26217554558354    1.07563741146421
