    23
        -45.38134566  Gyration_radius:  2.27246415602 Dipole_moment: 3.505
 S           0.96437051848703    1.43741308975827   -0.30276296526294
O           0.00090102554038    1.72017753773673    0.76103717141977
O           2.07628983170737    0.64603906505189    0.20410440083612
O           0.35355438077185    0.87195857827026   -1.48092278911646
O           1.56705536620374    2.83593369120168   -0.73380979906986
H           2.01530426216886    3.12418901863821    0.05466443848569
O          -2.61769300976015    1.20146534391821    0.71777072672095
H          -1.69477701955931    1.52695631640056    0.70297433480228
O           1.82117695488048   -1.45180598153887   -1.34668464574955
H           2.09109750212605   -0.71837193911867   -0.74705348961798
H           1.44170881026194   -0.98857004855272   -2.10130862738075
O           0.40787692462425   -0.50736248381735    2.08032647664328
H           0.16488435967907    0.36834153757466    1.70242772382473
H          -2.82642740810746    1.04143327363619    1.63947075747089
H           1.36813586393409   -0.51503736786996    2.00634188916555
O          -1.92793632931937   -0.49688895445475   -1.24914184107860
H          -1.09605671050888   -1.52876653823025   -0.46796428248211
H          -2.41319886622715    0.06225799884895   -0.61016080735963
H          -1.18313432487939    0.06905564838243   -1.53817677912295
N          -0.33272615602109   -2.08003638025897    0.05931662877185
H          -0.12675751221092   -1.56939075947788    0.95900865804439
H           0.54577770687647   -2.00488794128557   -0.53184430751562
H          -0.59942618067093   -3.04410268480663    0.22238713756691
