    23
        -45.38134543  Gyration_radius:  2.27257298791 Dipole_moment: 3.501
 S          -1.43928450344148   -0.16652624653874    0.99329421924417
O          -1.70115170858555    0.79489523478855   -0.07775595485217
O          -1.48088963615852   -1.53012065407304    0.48495622415124
O          -0.23720095404073    0.12805815240782    1.73433616831135
O          -2.64298038643229   -0.02813990328408    2.01155280400834
H          -3.39232009270168   -0.29267140884254    1.48778866173636
O          -0.16226420503965    2.86258512735038   -0.77321863801045
H          -0.80705974191443    2.20093270154438   -0.45001694506871
O           0.96123305970319   -2.26448650027784    1.09153372608624
H           1.06144040170797   -1.69706783792081    1.86356826782057
H           0.00732106689968   -2.16842953663932    0.86558858784609
O          -0.62679847948681   -0.64239357863094   -1.98791507338923
H          -0.32956159869880    2.95751944474500   -1.71223420048915
H          -0.99520841632829   -1.49053199266748   -1.71855638190949
H          -1.07245519045927   -0.00661824510913   -1.38308816804558
O           1.73234280865098    1.48829330392582    0.54995715141094
H           1.22138936629395    2.16810994978852    0.06701855213758
H           1.08211123698109    1.10424373292665    1.17307783371829
H           1.88858509067898    0.25304106149563   -0.35400339553329
N           1.79210358939405   -0.69043199427281   -0.86880378484273
H           2.61406517043390   -0.91342928513843   -1.41816950245500
H           0.92019852802007   -0.64946362400876   -1.46108379010051
H           1.60638460453924   -1.41736791158205   -0.11782636175921
