    23
        -45.38134519  Gyration_radius:  2.27260533109 Dipole_moment: 3.487
 S          -1.22992697565809   -1.17604367706214   -0.43396096294614
O          -0.12551726648524   -1.86179497138259    0.23691049190690
O          -2.06493364579382   -0.47454217698625    0.53044285461065
O          -0.79438327821067   -0.33863094678146   -1.52475837153411
O          -2.13157203677084   -2.31159223185917   -1.06850007317399
H          -2.43914438238211   -2.78732185835358   -0.30374492656917
O           2.47291718592871   -1.61064559365184   -0.32138960143787
H           1.52635488994251   -1.82286601817439   -0.19096544492693
O          -1.79828322961437    1.96239830461862   -0.39786525604780
H          -2.05380270065315    1.11020523428787    0.02485389755922
H          -1.66764298439760    1.71812366645789   -1.32053420452704
O           1.67845807402590    0.67020730007739   -1.50337138979575
H           2.18816260680328   -0.10151781485498   -1.18600290461206
H           0.80659196265363    0.29370320787433   -1.74138153221015
H           1.21065128183722    1.48758225850117   -0.28637143148775
O           0.12465155063761   -0.11450169935651    2.17464183912156
H           2.89918217620192   -1.77532279540058    0.52110699950407
H          -0.81577566965486    0.00710818759155    2.34359831081265
H           0.13749618758240   -0.85260567420925    1.52382867560034
N           0.67598867325424    1.92138847566745    0.54448080116627
H           0.58155399152806    1.18239100359581    1.29119181690487
H          -0.30683314616879    2.11489458783523    0.19317611690212
H           1.12580670539073    2.75938324156624    0.89461430518985
