    23
        -45.35869276  Gyration_radius:  2.35968360928 Dipole_moment: 4.215
 S           1.94522485106663   -0.28470562193984    0.17964180595232
O           2.04375242203078    0.84491648883463   -0.75968498629904
O           1.22950084526891    0.13306638547127    1.38317379223951
O           1.42357236900927   -1.47757085517457   -0.41763880323471
O           3.43515329040895   -0.57172020868849    0.61816381740073
H           3.75150656980143    0.30898867685985    0.78748624758015
O          -1.50014462237075   -0.04932701587980   -2.37126670957185
H          -1.12499632258213   -0.34283313789053   -3.20367217783995
O          -0.61603163383885    1.94096090603265    1.14315895067245
H           0.06976081031903    1.24051711734152    1.31335787737486
H          -0.30263894154290    2.73678517417502    1.57657228317791
O          -1.16873854311415   -2.03199849886177   -0.81571878762835
H          -0.19556340456780   -2.02708023477187   -0.75085992885220
H          -1.46136534046061   -1.79059194967129    0.09514791440814
H          -1.44392818682772   -0.85556367041752   -1.74148719390448
O          -0.15543489674967    1.79344470189873   -1.36662393088751
H           0.81281422347861    1.40131767141387   -1.20008613282445
H          -0.74661481169984    1.02446349847534   -1.81109155218502
H          -0.50189206521026    1.93887394383616   -0.42235849888656
N          -1.43854343888613   -1.11197748756972    1.70665003366820
H          -0.44903110415280   -0.87685984683391    1.74593926675930
H          -1.65091276245327   -1.69638538064163    2.50495384089600
H          -1.95544929699294   -0.24672063596574    1.80624288197841
