    23
        -45.35869245  Gyration_radius:  2.35944633219 Dipole_moment: 4.211
 S          -1.15710178612198   -1.39520371129513   -0.78039682919559
O          -1.54758631846966   -1.64499196979152    0.61713727599546
O          -1.46530978822168   -0.01320045665682   -1.14120707679798
O           0.19120949149434   -1.78139972270972   -1.07169936881734
O          -2.12044554452188   -2.30933323184171   -1.63541568141808
H          -2.96004376576766   -2.12832397347108   -1.22700691106480
O           2.00298054863735   -0.35936901799619    1.93272517661335
H           2.29553437689170   -1.23169728697558    2.20349529701846
O          -1.31316631275575    1.79184288389991    0.71723563337015
H          -2.20333275523585    2.09686523773429    0.90151675434318
H          -1.38590610771044    1.16013930167497   -0.04782507805064
O           2.39321928302945   -0.33428423301828   -0.57895801356664
H           1.73176180679841   -0.99792551398513   -0.84954453805300
H           2.04454423974960    0.50659038187108   -0.95957556858925
H           2.21395852959648   -0.29361719759216    0.93228351295539
O          -0.46070138686862   -0.10031681674217    2.20967180406161
H          -0.91241500341601   -0.83308115853869    1.59471976606668
H           0.59743380987042   -0.20245999787540    2.11763347840704
H          -0.72551885075042    0.76752125632302    1.75227424660779
N           0.91810579862170    1.68807179149597   -1.58692764306731
H           0.66106536574007    2.41428793074198   -0.92940335239448
H           0.11194432347240    1.07494838077779   -1.68735308106538
H           1.08977004593786    2.12493713395889   -2.48337983344986
