    23
        -45.38134547  Gyration_radius:  2.27235500269 Dipole_moment: 3.515
 S          -1.19785205540882   -1.28013412120003   -0.13151502965763
O          -1.19590787731122   -0.76119447291281    1.23625609847439
O          -1.89058772017562   -0.36731221582407   -1.02941015289908
O           0.11717361135415   -1.64782763519772   -0.59673774181884
O          -2.05283965991045   -2.61152021515120   -0.09533692251842
H          -2.91757094716551   -2.29922273118341    0.15054157604489
O           0.93762681241344   -0.36548756854557    2.79178202429660
H           0.13488606491527   -0.63160569459841    2.29917378930802
O           0.07578826370697    0.14309188875708   -2.68593384831396
H          -0.77087287672497    0.00091379304932   -2.20302605100585
H           0.52642638117757   -0.70306306597947   -2.59075047799190
O           2.26108449768258   -0.45069128453741    0.45350361745514
H           2.01294312084025   -0.42633229054497    1.39937234623868
H           1.61754542130339   -1.07339929758345    0.05768035740701
H           1.73770517310023    0.82680416700943   -0.22428694346608
O          -1.14326092671685    1.76915773088239    0.55637017655042
H          -1.17876327099302    0.86955977543817    0.95422181186263
H           0.68063669609866    0.38514433804486    3.32952355661153
H          -1.78845621761111    1.71518157859067   -0.15664948291080
N           1.17235986057749    1.58022207932418   -0.75131691660333
H           1.72563473523215    2.40579767559227   -0.94992094517101
H           0.31790484000643    1.80622027847891   -0.17577503162592
H           0.81839606360823    1.11569728808746   -1.63776580026818
