    23
        -45.35869196  Gyration_radius:  2.35935461291 Dipole_moment: 4.212
 S          -0.89798885870095   -0.72295908545666   -1.60106424675838
O           0.20678994967072    0.20477729923546   -1.83427998080264
O          -0.37275790785454   -2.01617732151528   -1.13255569706686
O          -1.93136254752656   -0.19192088285044   -0.76316721008373
O          -1.52987811587472   -1.03353630681465   -3.01470215011314
H          -0.83986464016210   -1.54868205037955   -3.41842410583952
O          -0.44108313550955   -0.76295731362947    2.66452829434813
H          -1.16708680929070   -1.33844406406903    2.91268858171503
O           2.31071218861402   -0.01133416492230   -0.33038578205878
H           1.53820729448722    0.13768188638755   -0.93925243682286
H           3.02950393165540   -0.32999408436504   -0.87920309231550
O           0.99271055832923   -1.81221278334886    0.91612388063250
H           0.37066107641280   -1.98285551060204    0.07760326575914
H           1.62890845506904   -1.09551473418229    0.57827732206595
H           0.39468685638912   -1.37523936457156    1.68425980727995
O          -1.57886774210188    1.19240180472473    1.50516053124573
H          -1.91632908473376    0.73202077682455    0.71438229927901
H          -0.87449697136363    0.07059758966759    2.25596286895551
H          -0.89596291979880    1.80436636461100    1.14107088797950
N           0.31551735585338    2.47120061391418    0.07016293184903
H           1.27127908399133    2.32031030915747    0.36960557058059
H           0.23606157818170    3.42800937294607   -0.24963319460695
H           0.15064040427180    1.86046165922407   -0.72715834530111
