    23
        -45.35869223  Gyration_radius:  2.35944633622 Dipole_moment: 4.210
 S          -1.26098349062569   -0.27764305461481   -1.49211588865346
O          -2.18039377112992    0.52902005316231   -0.67237949317859
O          -0.05591172431603    0.49372664774617   -1.78896039002873
O          -0.99669882690268   -1.57354137708703   -0.94185760412532
O          -2.01652365187589   -0.47730539324946   -2.86459721981088
H          -2.31917785236991    0.40687848594483   -3.04102811992261
O          -0.39540909197464   -0.69876075100986    2.68993109087460
H          -1.13881158188780   -1.23646480320403    2.96940924176019
O           0.75531557944459    2.20807273250105   -0.01740384790429
H           0.51153528360122    1.56775445794990   -0.73867415786537
H           0.62463233493013    3.08599368076340   -0.38015609270602
O           0.79334684589636   -2.14466251401710    0.97018698336660
H           1.53551016538684   -1.63618108917763    0.56506751383805
H           0.14475836919859   -1.28473527327199    2.04604753505622
H           0.11341603004734   -2.15092421367785    0.27104923090696
O          -1.15223165714370    1.31559354844075    1.43177059451471
H          -0.32626368465791    1.74244240061999    1.02217672097282
H          -1.67542413403080    0.96305206702161    0.58249752897108
H          -0.83065633701425    0.46771471864466    1.99426545761441
N           2.39469374154012   -0.51503645865061   -0.46590910805508
H           3.18939945220038   -0.83172300669479   -1.00640255017608
H           2.64864056231411    0.35746245253575   -0.01857885217695
H           1.63723743926293   -0.31073330072248   -1.11433861335056
