    23
        -45.35869223  Gyration_radius:  2.35937804704 Dipole_moment: 4.210
 S          -0.54907176900596   -1.44921888920572   -1.22136600926441
O          -1.77084767028702   -1.47889905975877   -0.40020497681883
O          -0.38236350278621   -0.12345228541237   -1.81283166184937
O           0.61226507039064   -1.92396757397486   -0.53012444497589
O          -0.84309973080819   -2.44058543466095   -2.41502412215738
H          -1.71664622409876   -2.16747851991860   -2.67355720032480
O           0.23949184393122   -0.15345717828256    2.79304156211483
H           0.18265971267865   -0.98912886484240    3.26026353614484
O          -1.23740126820006    1.92290298710126   -0.46502322242759
H          -0.87956101280805    1.19086468759613   -1.03572178293172
H          -1.99458658279883    2.28273536088100   -0.93040837515284
O           2.14488426794219   -0.50128520638670    1.14709029592455
H           2.22577469812162    0.28823521904371    0.56085607449866
H           1.04757428419957   -0.23862217853272    2.16882598577273
H           1.73530781774709   -1.17230948351969    0.56989231907771
O          -1.77562529829790    0.23558855544759    1.37841976523975
H          -1.57801195611481    1.03770594573347    0.78693116763961
H          -1.81473458606336   -0.56033396696082    0.68248576821682
H          -0.92621501369333    0.08129694912385    2.00562608488749
N           1.91788539893474    1.40781051369108   -0.74648210201547
H           1.39140667067076    2.23096896135508   -0.47992866384067
H           1.29533725937450    0.81748435479214   -1.29407620987577
H           2.67557760096768    1.70314510673591   -1.34868376793257
