    23
        -45.35869184  Gyration_radius:  2.35932504519 Dipole_moment: 4.212
 S          -0.80825009847697   -1.28828923104330   -1.25637069678449
O          -1.88280916145012   -1.37045240000311   -0.25324560250663
O          -0.67529119117647    0.08850010761562   -1.72789590073638
O           0.42472281448171   -1.87039505276600   -0.81743239759423
O          -1.33585862179300   -2.13369611794943   -2.48155133702470
H          -2.22264487768711   -1.80149173966912   -2.56949086465716
O           0.67736728799816   -0.46714133706116    2.68340851158108
H           0.65544799333507   -1.34694928929443    3.06462643369534
O          -1.20266019334908    1.99958897311619   -0.05314497639287
H          -0.97690397723380    1.32397586873921   -0.74762951573137
H          -2.00647541342687    2.43141544383416   -0.34780297700889
O           2.27679884545712   -0.69082394012356    0.72019629410355
H           1.37023890460500   -0.50804213128426    1.92990992141861
H           1.74731787802115   -1.28117298240642    0.15251731545863
H           2.30019469237794    0.15540792490390    0.21349951597471
O          -1.51808978794667    0.13735231652446    1.66939118768126
H          -1.37983680889494    0.99325480770291    1.13960948092611
H          -1.70735354186686   -0.57570758225076    0.91109179361536
H          -0.58709216774489   -0.11112130745647    2.12784719004928
N           1.83855919279445    1.42058051522802   -0.90257357942587
H           2.50242722807355    1.75714512995103   -1.58810950539714
H           1.40180789756006    2.22517374256834   -0.46930806129199
H           1.10838311633331    0.91288830115675   -1.39754219987796
