    23
        -45.35869265  Gyration_radius:  2.35962928344 Dipole_moment: 4.222
 S          -0.71083377235840   -1.70730180550302   -0.69041782626189
O          -0.93326902189374   -0.52202153553866   -1.51550611437405
O           0.70718176119803   -2.09919032843956   -0.75193590972044
O          -1.20930450211264   -1.58208717389339    0.64662320500022
O          -1.48491241330803   -2.89380518471428   -1.38867040921520
H          -0.94980643074192   -3.03517183863363   -2.16206161183721
O           1.62191673194494    0.35559303709573    2.26304764988317
H           1.79258116000156   -0.35774120400660    2.88100558854490
O           1.00178263922389    1.19231523849566   -1.73821681843737
H           1.32140035621941    1.15528889597608   -2.64147255151116
H           0.21347498274659    0.58692440859448   -1.69482799566234
O           2.24122529350690   -0.28897173556902   -0.06402628780133
H           1.88060469880027    0.43236400240082   -0.68229025292247
H           2.00344163130841   -0.00348288327300    0.93598778120161
H           1.64392850120668   -1.12632386110155   -0.31185106864957
O          -0.91241552001819    0.55300192412109    2.24002669448034
H          -1.13705186986357   -0.29960206198838    1.82299850807363
H           0.60891836787683    0.50618729623991    2.28553853023936
H          -1.18786063794990    1.21865538126633    1.56597595187034
N          -1.58253532936269    1.92903457355221    0.01692007059371
H          -1.61493460946326    1.06943267328941   -0.52706904162687
H          -0.85039701091580    2.50596924517728   -0.37926201494669
H          -2.46313499609320    2.41093292647511   -0.11051608697004
