    23
        -45.35869149  Gyration_radius:  2.35932471376 Dipole_moment: 4.216
 S           0.37070596737092    0.45480363525095   -1.88381738401062
O          -0.68462394790546    1.21878061001677   -1.22179033570233
O           1.68589049525320    0.87389157576090   -1.37185065358918
O           0.17021348927283   -0.96292499530830   -1.84326092629452
O           0.36620777516487    0.90270729525173   -3.39819890571991
H           0.68554223185679    1.79591677504368   -3.32967234141438
O           1.45517661243999   -1.77217033792783    1.61907353447872
H           2.13860588186282   -2.34094530970651    1.25952255442046
O          -0.28439038072345    1.96024585772276    1.23292729927887
H          -0.18266362420366    2.91368901324472    1.23604903554238
H          -0.51262564938311    1.70590582636876    0.29862149958240
O           1.88806992307772    0.62202200050231    1.07737631131464
H           1.05375161882075    1.14359075891335    1.33073918755894
H           1.71814880166028   -0.40023579463097    1.33240915830444
H           1.89539962202567    0.69705884914437    0.02219704111272
O          -0.61839160765032   -2.38926089793939    0.28474075397415
H          -0.34560643902505   -2.05984208420557   -0.59176636423340
H           0.58808093983557   -2.04797724068602    1.14795942442346
H          -1.36318223033232   -1.79191609871342    0.53368586483920
N          -2.39057859735131   -0.37849365119536    0.59891234060395
H          -2.25637824191166    0.20115422320588    1.41854511995825
H          -3.38581800227260   -0.46847847021999    0.43969541547418
H          -1.99153462787709    0.12247846012674   -0.19209762989051
