    23
        -45.35869239  Gyration_radius:  2.35940997122 Dipole_moment: 4.214
 S          -1.59700938621815   -0.90512995319951   -0.72368344833131
O          -1.98639426057890   -1.02752511415392    0.69102644795933
O          -1.43117961464771    0.50440181122285   -1.07148193041924
O          -0.47596305454879   -1.72352154996643   -1.07778262382174
O          -2.85156642709014   -1.42328210594006   -1.53142909340345
H          -3.55983260313738   -0.97108411891686   -1.08604385801519
O           1.84395444419988   -1.05027165965292    1.83692670115460
H           1.83263639578292   -1.97413572478819    2.09420724470969
O          -0.59013198300359    2.12118570373702    0.77619534303389
H          -0.90780223942394    1.56371741883439    0.01595363636896
H          -1.31406127515314    2.70799342099079    1.00200547358896
O          -0.36812333057996    0.02992591026014    2.22926399765644
H           0.58614353487746   -0.42559554267280    2.08778655224765
H          -0.34112121603622    0.94273380564165    1.78366583730138
H          -1.06968517743135   -0.49567821835986    1.63691680334300
O           2.10742304112026   -1.12157341858875   -0.69035425515216
H           2.04982212431333   -0.20650475770965   -1.05494756608613
H           2.02009941604423   -1.04518324607182    0.82764024476563
H           1.24792511937832   -1.51587125902062   -0.92898071582769
N           1.36731191680126    1.29732275624629   -1.62975713131354
H           0.39665343536723    0.99744190109056   -1.69157512931280
H           1.63778389963583    1.66280057295090   -2.53375765034854
H           1.40311725038798    2.05783337810917   -0.96179487988808
