    23
        -45.35869231  Gyration_radius:  2.35939535095 Dipole_moment: 4.211
 S           1.86380020015807    0.14113649033535    0.63226185905277
O           1.66661666639263    0.09417869852507   -0.81486695538444
O           1.43352045176238    1.44977016484364    1.15221845352183
O           1.28374536331397   -0.96685983061493    1.33078113201033
O           3.42404199504204    0.10607284905804    0.87504495959113
H           3.68117942190490    0.96544167018729    0.55905955641736
O          -2.32419841784752    0.14681883301378    1.56577011946213
H          -2.29007992413594    0.14464769672359    2.52424736545371
O          -0.31887045331143    1.43320266539725   -1.81464051569224
H           0.04590538281367    2.15993534758160   -2.32277579004623
H           0.45566097134082    0.89050672797929   -1.50585396150251
O          -1.14935568467977   -2.00881917315074    0.90638900131194
H          -0.24511781705213   -1.79306223531807    1.20131463173181
H          -1.91916428085639   -0.74700410319947    1.27133103879999
H          -1.06660777801055   -2.05338017533454   -0.07575535046281
O          -0.91977686882034    1.97156504578138    0.61095056728307
H          -1.54253742798233    1.20834174888618    1.02096624849059
H           0.07172039111600    1.78862985222243    0.93150646401208
H          -0.86185897805563    1.81399957082700   -0.39118600272894
N          -0.46204580634529   -1.77014345876023   -1.69237752747370
H           0.41995540969587   -1.33033938207673   -1.43832660516983
H          -0.99118366511076   -1.09165961440985   -2.22672027122849
H          -0.25534918134791   -2.55297938833666   -2.29933840702989
