    23
        -45.35869152  Gyration_radius:  2.35931275463 Dipole_moment: 4.217
 S           1.62719749324845   -0.09350060237262    1.11192617766706
O           1.25417608477544   -1.31007725104770    0.39338017531545
O           2.15583546763588    0.90250720776038    0.16525534173552
O           0.59071211536701    0.41971060813863    1.95692046088229
O           2.85721392953800   -0.47165542703930    2.02726177158131
H           3.53652756954434   -0.61491046815084    1.37728535084680
O          -1.52578690618603    2.29028393440016   -0.55447402455042
H          -1.37509551609218    3.12017871308005   -0.09795936206460
O           0.38764681110854   -1.06129771100522   -2.04037770828331
H           0.70255900034325   -1.23549050002073   -1.11294044417115
H           1.05120098334457   -1.43175535680565   -2.62504732874345
O          -2.00353639830725    0.64084131134165    1.31962748243663
H          -1.79125474133703    1.61817891532306    0.17190081103132
H          -2.09320380697936   -0.26876450321703    0.94800135169826
H          -1.12595374074192    0.62785674101001    1.74495876911094
O           0.55945126757018    1.45714897543952   -1.63649680088019
H           0.37840071933652    0.50666268667127   -1.94643285489441
H          -0.33905508354851    1.82845859112434   -1.19650455353524
H           1.26672293170152    1.31640452468174   -0.86226841152062
N          -1.65998163044987   -1.83708042132702    0.30708610352558
H          -1.73205946408025   -1.91328539668658   -0.70028722855524
H          -2.05311092480774   -2.67657646530455    0.71273396599691
H          -0.66860615094225   -1.81383808603612    0.53645095534509
