    23
        -45.35869099  Gyration_radius:  2.35967243056 Dipole_moment: 4.233
 S           1.58926659048725   -0.83550762315913    0.82297484339024
O           2.13404358577324   -0.78604914481377   -0.54386896085486
O           1.25434612899633    0.51462570330717    1.27108481689423
O           0.52112420520598   -1.77740151746889    0.97619951721697
O           2.79545682703763   -1.31934518978960    1.72045226348801
H           3.49275495748890   -0.74605199853730    1.42113727097871
O          -1.52802207565762   -1.01319780186840   -2.12781986992388
H          -1.40288612565732   -1.90145379731969   -2.46718699681886
O           0.46547356519470    2.22987667873309   -0.50930975662255
H           1.15035452765178    2.89523915688361   -0.59662108973355
H           0.75163921737174    1.62817784310160    0.22952546810010
O          -2.04855365436512   -1.36291531777608    0.33542643750669
H          -2.11996671388473   -0.48710282860540    0.78427616321861
H          -1.80889436368259   -1.12650807043479   -1.14899509394886
H          -1.18624901851197   -1.70379173918423    0.63785856344844
O           0.60128673662570    0.28247386419402   -2.15970139282145
H           1.28038796499397   -0.23949687799967   -1.53842517902027
H          -0.31538806575740   -0.26317233021009   -2.17290555981692
H           0.43972162404695    1.14070915678197   -1.64030306209630
N          -1.65272683949079    1.00608227308703    1.56511418717091
H          -1.68754118847995    1.82254304570124    0.96676858156917
H          -0.67055547570075    0.78550181498751    1.71520399602053
H          -2.05507240969773    1.25676468046823    2.45911485268763
