    23
        -45.37890742  Gyration_radius:  2.28837262794 Dipole_moment: 2.635
 S          -0.79940003421036   -1.12556658136357   -0.92998200782760
O          -0.03169701484368   -2.30638969320481   -0.61767754385699
O          -1.30297993562288   -0.42172996050641    0.23622025457749
O          -0.07715439313461   -0.20956415017303   -1.81737863786452
O          -2.06584517555299   -1.62312484106778   -1.74292436905677
H          -1.78503090503173   -2.48949667049065   -2.01861226534609
O          -0.28725074806092   -0.81378109580301    2.70058222491839
H          -0.79693312915912   -0.80558331824371    1.86865132158845
O          -1.00922158523588    2.30702147341309   -1.71508292230970
H          -1.92328222777853    2.31922639806603   -2.00189453485928
H          -0.69238887664786    1.39264743652637   -1.86087183184420
O           1.79543393024154   -1.58987041889045    1.18893422340901
H           1.91306471619451   -0.23064217594321    0.48138524957267
H           1.19437817089157   -1.42914329687484    1.94550322582758
H           1.23493698866694   -2.06068744818228    0.53798902881133
O          -0.29963099502112    1.98054681245832    0.87561400660382
H          -0.55376278730038    2.46624594135081    0.06940862238360
H          -0.81429750823620    1.15224582487788    0.79867380725274
H          -0.34069760383697    0.07812905900812    3.05102399063446
N           1.74611654782654    0.65418328780437   -0.11583108040091
H           2.61132797525285    1.10838940075039   -0.38698565952718
H           1.08955155011650    1.31272802620084    0.40203139576752
H           1.19476302047229    0.33421600029411   -0.94877648845196
