    23
        -45.37890819  Gyration_radius:  2.287692321 Dipole_moment: 2.681
 S           0.01886387979911   -1.39188493680418    0.91178887390340
O           1.43608396507422   -1.65972723000036    0.93515415171008
O          -0.34874894591485   -0.26721350432346    1.77740591461497
O          -0.52918355399787   -1.21646741444210   -0.42124396082148
O          -0.68593600463379   -2.67134568918815    1.52669184267801
H           0.02938074867080   -3.06708762602825    2.01372017458801
O           1.02902174061633   -0.67421765616244   -2.55204082574994
H           0.47833447187623   -1.06468931559889   -1.84774502004993
O          -2.70909203799460    0.82825361644070    1.11369893613254
H          -1.89236800672483    0.41168917523369    1.45605250974447
H          -3.39838052604134    0.16826610144222    1.19880025848967
O          -1.36654038842706    1.20720974891406   -1.20411335854753
H          -2.07415373797749    1.33722049377685   -0.54610114229620
H           0.45552639896498   -0.07235533742318   -3.03164430211977
H          -1.15565264642960    0.25698262812239   -1.10698457225961
O           2.61052656069640    0.20656557078201   -0.56498788969997
H           2.40205545962437   -0.54635603443998    0.02602754460067
H           2.27630473372569   -0.08045798977240   -1.43983514191736
H           1.56996146421866    1.21704215523735   -0.05704378391381
N           0.69508236177863    1.69691242777369    0.35741193046383
H          -0.08011349532155    1.71079086057901   -0.37165945284889
H           0.89608851534314    2.62135800723956    0.72270768013202
H           0.34293904304843    1.04951193866472    1.10393962316561
