    23
        -45.35869237  Gyration_radius:  2.35935216458 Dipole_moment: 4.212
 S           0.63592556761842    1.73945013489591    0.68061194175831
O           0.37347779704290    2.20551263146246   -0.69126374911442
O          -0.59509115369708    1.21793645899679    1.27039087035708
O           1.74684970894058    0.83986976825955    0.77275315351313
O           1.00158819621064    3.04802986092271    1.48571049958334
H           0.31648962197170    3.64147092144251    1.19772384224850
O           1.05363744059791   -1.45131791851432   -2.15785674274011
H           1.87697180772710   -1.20260044117639   -2.58222773586113
O          -2.31292960525804    0.08159030676243   -0.30850763952701
H          -1.70202054643689    0.49517103532182    0.35885165500237
H          -3.08572582204734    0.64731834843196   -0.35461965320997
O           1.69883826390576   -1.79384127121418    0.27687516955566
H           1.29581694748570   -1.66492893932905   -1.18549281623462
H           1.92168021607144   -0.87414675178088    0.51289367527811
H           0.88961446398005   -1.97851347181741    0.81031030586442
O          -0.56836296231973    0.44148110466731   -2.14184005187618
H           0.11591688731089   -0.37652749258197   -2.17378007119830
H          -1.33943099630610    0.17231300455224   -1.53725834385741
H          -0.11129779702087    1.22584536567980   -1.59845050439131
N          -0.58300689017679   -1.71062777022413    1.71503337494184
H          -1.43359442299311   -1.90488259711322    1.20063802520707
H          -0.51107083463531   -0.69940434486688    1.80561983821480
H          -0.68427588788950   -2.09919796285780    2.64388494648651
