    23
        -45.35869187  Gyration_radius:  2.35933017093 Dipole_moment: 4.213
 S          -0.80761336891444   -1.70582115380441   -0.57441067787909
O          -1.75005118717861   -1.46415299342307    0.53065486891583
O          -0.86853991758112   -0.59989545891304   -1.52775627330857
O           0.51928440582519   -2.01526514110280   -0.13236368878756
O          -1.37962674776497   -2.97445883985546   -1.32108794153653
H          -2.29987953363897   -2.74688759160603   -1.39736606424443
O           1.01537297756423    0.60610177682990    2.54530721652318
H           1.12577926677808   -0.06737022725469    3.21918659590422
O          -1.39787404241240    1.76774350226834   -0.60631082018926
H          -1.18318814833143    0.89454567683156   -1.03196121894998
H          -2.26915882880514    2.01473224008755   -0.92140673901470
O           2.40094505935545   -0.24927173849374    0.59316532046805
H           1.62067082353345    0.32362758846306    1.76853484564705
H           1.87445492486500   -1.03631720448570    0.35968299838245
H           2.28160682440932    0.34629160340910   -0.18432909572834
O          -1.32926172977046    0.67026724500736    1.70129014510278
H          -1.52812021836834   -0.28350934578885    1.28906172584700
H          -0.33276657152941    0.66105708800734    2.08259155349566
H          -1.33840191633282    1.27210422050681    0.88265202769817
N           1.57276073109650    1.07644819738122   -1.60684015192023
H           1.10753527596115    1.96033518975860   -1.43895993820489
H           0.84749369678569    0.38252657604772   -1.77521435027080
H           2.11857821444309    1.16716879010433   -2.45412031794887
