    23
        -45.36026753  Gyration_radius:  2.31940667232 Dipole_moment: 3.829
 S           0.87967256662041    0.97157593042541    0.96484974857748
O           0.42037170162960    1.94902389505502    1.92968549098296
O           0.39549764937980   -0.38096585849654    1.28842086850121
O           0.59753452185563    1.29914858930041   -0.40823319195228
O           2.45713108532054    0.90593106288750    1.12103166854087
H           2.58872038518163    1.13971313789127    2.03461763433366
O          -1.40741034016851    0.23974451579287   -2.10742771154819
H          -1.14710489553447    1.16020693715977   -1.98211799802549
O          -2.10636358449269    1.96860311312987    1.31291749200438
H          -2.58937470374678    2.11418467752117    2.12927604308411
H          -1.14763916018745    2.07955691632558    1.53586563575662
O           0.99468833542100   -0.63879623480463   -2.26990830629302
H           1.18618206068932    0.10219756312684   -1.67048447154786
H           1.11211969576633   -1.44910087886115   -1.72162556192466
H          -0.52809440865157   -0.22416592836096   -2.31206336130989
O          -1.88403817948861   -0.34800345620180    0.24863842421858
H          -0.95157756036779   -0.49336114788181    0.66510125227895
H          -2.15503829634614    0.54739503180076    0.64286920296987
H          -1.71357150232534   -0.14738129668257   -0.83226763414906
N           1.23560213081059   -2.58147623279021   -0.38935440356289
H           0.57843680545188   -3.34766785213059   -0.31517986452772
H           1.02240400398493   -1.91575389440663    0.35180577270434
H           2.16185170935275   -2.95060859034283   -0.21641673930019
