    23
        -45.36026744  Gyration_radius:  2.31925881997 Dipole_moment: 3.832
 S           0.92029595731462   -0.25621033420178   -1.31738488812628
O           0.76831006181595   -1.15881841424647   -0.16387415207230
O           0.56588266097968   -0.91109195399929   -2.55938246367868
O           0.24630899997439    0.99331880546043   -1.07944675605745
O           2.47334929049365    0.05470500053274   -1.41053170920509
H           2.79316966619059   -0.63583692916457   -1.98278661641073
O          -1.91715959464479    1.53638187007475    0.66602724819599
H          -1.79013340737579    1.82204664337455   -0.24662202086894
O          -2.00089112146674   -1.11261029039787   -2.18952606492861
H          -2.27679477714094   -1.93230875262860   -2.60532215266840
H          -1.04975800908857   -0.98510994125425   -2.43485617582218
O           0.47643571086238    2.09160758477730    1.39490326170931
H           0.86334308293384    1.35752790095234    1.92636600392419
H           0.68754829893691    1.87407583763577    0.47129523762439
H          -1.05437836007130    1.81920288163021    1.11964629384474
O          -1.67286587069925   -0.90442671419621    0.33992000854165
H          -1.98049067646261   -1.02489711854048   -0.61993887710027
H          -0.65430369654173   -1.04630409850621    0.25882266704666
H          -1.81957033302107    0.17695646688955    0.55614640195525
N           1.50947770501510   -0.18339555603048    2.45588955870419
H           1.03069639158582   -0.71228666811843    3.17378810090411
H           2.49743362920209   -0.18845886239005    2.67492349016350
H           1.38409438122251   -0.67406737769022    1.57194360445225
