    23
        -45.37890799  Gyration_radius:  2.28778190976 Dipole_moment: 2.696
 S          -0.96472109584532   -0.66311155747713    1.18165328143970
O           0.02751881219187   -0.96258829142277    2.18491656338617
O          -1.25005191603186    0.77223841569919    1.09325160497753
O          -0.66651510166381   -1.21078359955056   -0.12950345697218
O          -2.30830874901636   -1.35131854174607    1.66464413633146
H          -2.14744488755602   -1.44957493363929    2.59738760946828
O           1.80726537575124   -2.02835079219763   -0.81773196629699
H           0.88032467480811   -1.93190680776694   -0.52904486337536
O          -2.35128869254644    1.46840165487327   -1.25472397773735
H          -3.18454195915722    1.00784269073204   -1.36167053991907
H          -2.03983146806521    1.25738908812062   -0.35124145328600
O          -0.01401897924608    0.43476671842756   -2.14326075835083
H          -0.84264048160917    0.94652065078974   -2.18790753412316
H           1.82640051040402   -1.75559800875864   -1.73774284112026
H          -0.25814747023742   -0.31871562778504   -1.56929710693927
O           2.39667969942726   -0.29951897932581    1.15465346844112
H           1.65527504748227   -0.59106559168918    1.72465572539780
H           2.45788546868655   -0.99820092593499    0.47089665940601
H           1.71941575665395    0.88669839506264    0.45046052540745
N           1.01458108513816    1.56914003798644   -0.00231714735630
H           0.12423388603316    1.45956913651469    0.54140644579141
H           0.77298632047351    1.23025368490212   -0.98190647956669
H           1.34494415390200    2.52791319416588    0.00242212501000
