    23
        -45.36026735  Gyration_radius:  2.31927251776 Dipole_moment: 3.827
 S           1.60129013876461   -0.22646967445383    0.17918508074366
O           2.68983006382260    0.65714840142131   -0.18352848258755
O           0.68985671682583    0.40289800558886    1.14953969833118
O           0.86605667095144   -0.76765595970544   -0.93383853303677
O           2.26200080503082   -1.44700131165390    0.94797205634812
H           3.04084666558425   -1.05743748812673    1.33301997371228
O          -1.68439822656280   -0.01477177109845   -1.90825534947690
H          -0.87624410009398   -0.19348927132214   -2.40392120932597
O           1.34395362949948    2.41025351603194   -1.55547726244377
H           1.92844513519243    1.73487960624734   -1.12738775080909
H           1.76266388439350    3.26046958119683   -1.40465703606403
O          -0.81311198094945    1.71396528505688   -0.36695707520663
H          -1.27877039007815    0.96334858944677   -1.04329439023233
H          -0.29372598654989    1.17713456281845    0.34465538023337
H          -0.06214236384768    2.12746425062361   -0.91031834502592
O          -1.45696233161809   -2.06688843525096   -0.38967868848465
H          -0.50538052376635   -1.91773696602655   -0.52107951046049
H          -1.62623808224426   -1.83044800235908    0.55179655935761
H          -1.78868574564303   -0.84175141381115   -1.32908082062678
N          -1.52799074869652   -1.15105568175130    2.16480067424268
H          -0.69666609373297   -0.58458206761625    2.00392514035753
H          -1.31487646429823   -1.81059378001137    2.90212313322522
H          -2.25975067226601   -0.53767996523673    2.50045673680440
