    23
        -45.36026739  Gyration_radius:  2.31929759934 Dipole_moment: 3.828
 S          -0.25318504656513    0.19886525202800    1.59506383794636
O           0.68374850998171    0.04741956095664    2.68887033383777
O           0.18642713320979    1.23083956474073    0.64105073514630
O          -0.58292722509492   -1.02267592328157    0.90849697023818
O          -1.59263935071416    0.75727912699797    2.23641344774376
H          -1.27885192484276    1.23772106765250    2.99623546323804
O           0.33252696156101   -1.94431592182105   -1.60845639863754
H           0.24887679849094   -2.43173552602376   -0.78011300912222
O           2.65641264190143   -1.03331638395542    1.38237288510030
H           3.46524918975732   -0.71249035524525    1.78708911726958
H           1.91496981890317   -0.71306084605988    1.95570836857148
O           1.75092633509853   -0.07916456955219   -0.81296695163410
H           1.13619507096935   -0.89947292561123   -1.24531545398132
H           1.09366780706887    0.54240912463100   -0.31711502606436
H           2.25797551583824   -0.50733124788124   -0.04494054775637
O          -1.96280622757827   -0.81947460430079   -1.42266349937249
H          -1.79082858658933   -0.88323083789038   -0.46800325244841
H          -1.90300435108890    0.14188231826538   -1.63054264687693
H          -0.58680512057395   -1.53098099569436   -1.72799488869727
N          -1.53025378770232    1.85430259666950   -1.60135169136553
H          -0.98984150422824    2.26667123529148   -2.35116193188356
H          -0.94267943462771    1.83319254672599   -0.76933368356931
H          -2.31315321313397    2.46666775345279   -1.41134218761342
