    23
        -45.37890804  Gyration_radius:  2.2875990641 Dipole_moment: 2.687
 S          -1.30288514291660   -0.89199645172848   -0.52581711646626
O          -0.41630452396495   -0.63750840517067   -1.66539252299782
O          -1.02111955148429   -2.15313445189142    0.11536648190764
O          -1.31703534841010    0.24306499240830    0.37945715895827
O          -2.76595181662606   -1.01321058339394   -1.12300236674385
H          -2.87362683682995   -1.95730304118735   -1.17265673889665
O          -0.18443932214420    0.14314854079002    2.82307108125473
H          -0.76822598882307    0.13789302030216    2.04154083767728
O          -0.27092804602143    1.96609332961224   -2.30713367312871
H          -0.35836279816978    1.00005155363534   -2.17716960168293
H          -1.14309588838920    2.28050800233228   -2.54879912477716
O           1.18028912845500   -1.81173713416046    1.58171410054091
H           0.80785313310239   -1.21621120127485    2.26445444933326
H           0.39150539605618   -2.16064840179799    1.11720664189119
H           1.71691157107325   -0.87306058643381    0.48974608738926
O           0.63364141089559    2.07701475491240    0.23994352029295
H           0.16978058675239    1.03325632856988    2.88126239286732
H           0.47528362535772    2.39015809174365   -0.66969948249248
H          -0.17057534428462    1.55324919385964    0.42904123007769
N           1.82556865273352   -0.19587601503360   -0.34522613348273
H           1.56398762190451    0.78905060216706   -0.03853055077517
H           1.07764988719564   -0.46600725996616   -1.02935992605483
H           2.75007958453463   -0.23679488830270   -0.76001675469700
