    23
        -45.36388383  Gyration_radius:  2.31821531469 Dipole_moment: 2.611
 S          -0.70208353850969   -0.50269681284218   -1.40798612128702
O          -0.17194157165111   -1.30536728934000   -2.46517068361942
O          -0.87716751405724   -1.22383595183470   -0.14445445302126
O          -0.05888279063292    0.78319646161693   -1.19248517026709
O          -2.20083391793469   -0.10479562409981   -1.85476444795278
H          -2.42115478771150   -0.77173534853913   -2.49762717176845
O           0.95929833436855    0.91032478580381    2.50831270508653
H           1.04956698100069    1.84254494098969    2.71547747115720
O          -1.91711617521751    2.09084955734424    0.04733285215249
H          -2.70882932548652    1.89124697751946   -0.45825776303498
H          -1.16791110072684    1.76078833663474   -0.50813680800460
O           2.19249142197483    0.60431953375384    0.28415024741378
H           2.32483662782428   -0.35245626425071    0.08433458422063
H           1.48887082618268    0.86181728247277   -0.33614457712233
H           1.51695925358334    0.75331413032511    1.67366315179533
O          -1.34903955523528    0.28907281713651    1.75246765835264
H          -1.16427533410403   -0.43476242250321    1.00339687370161
H          -0.39559908455784    0.53358607032458    2.13829220233308
H          -1.66464199823131    1.09611061748379    1.20782892768042
N           1.93756087563998   -1.94903844351208   -0.53443726646999
H           2.64193953667887   -2.62622668088204   -0.80249258116281
H           1.36524837777555   -1.75488862640066   -1.35200887091835
H           1.32270445906936   -2.39136803704096    0.13870923084105
