    23
        -45.36388332  Gyration_radius:  2.31808788295 Dipole_moment: 2.627
 S          -0.24976744847969    0.28135480290035   -1.60795502756198
O           0.26268274964554   -0.99702188933410   -1.10707164048126
O          -1.44006932963017    0.16221330555982   -2.39003699609220
O          -0.26757839465311    1.28625184702168   -0.55759780246302
O           0.89814906616802    0.80769182904572   -2.61297673164196
H           0.57015060302719    0.55625429044319   -3.47074464266396
O           0.68812400727555   -0.49533619309653    2.70602460097170
H           1.00732704112731    0.19681212909204    3.28838298226798
O           2.26086727615996    1.70423669569857   -0.19315649251675
H           2.60874980758091    1.77290156412664   -1.08565227976388
H           1.27766645578499    1.73407669657062   -0.29816830688453
O           2.02857962712457   -0.70363055488079    0.59723694932491
H           1.29199551218960   -0.92708541981235   -0.12892907464091
H           2.28614485312427    0.25910949465759    0.36352520680654
H           1.50617859916791   -0.66636204348449    1.51527401999081
O          -1.47645345173712    0.43399422089586    1.69897493135146
H          -1.98369018715620   -0.27502437202794    1.23781212888224
H          -0.21536866005346   -0.18012798706901    2.36514693649857
H          -1.11000990513631    0.95444526690782    0.96346062790817
N          -2.46373098328074   -1.32864671952626   -0.08302112186239
H          -1.77569709423254   -2.07051991147374   -0.13824881445134
H          -2.32253611932597   -0.75389411053930   -0.90973798308717
H          -3.38171401457280   -1.75169291170739   -0.15254149991243
