    23
        -45.36388339  Gyration_radius:  2.31808228671 Dipole_moment: 2.625
 S          -1.02457726510421    0.78611204764510    1.02929807319873
O           0.33877530378857    0.41239475875230    1.41542674721296
O          -1.30328574040406    2.18137559493962    1.16434444754642
O          -1.39691807123655    0.17506065763930   -0.23622003246002
O          -1.96635619293326    0.03344034139319    2.10232677205740
H          -2.16390112177585    0.71581002150975    2.73630758723266
O           1.74545601047727   -1.55781959987013   -1.60298531839147
H           1.42302048963056   -2.22113767902330   -2.21629295180558
O          -1.57545392903159   -2.32135348298638    0.42450850848226
H          -2.06532515810517   -2.30124100289728    1.25031573533399
H          -1.65648873693344   -1.40684232337589    0.05601424448093
O           0.91352223383607   -1.89424330490647    0.73834885968372
H           1.32272310727059   -1.79098495174379   -0.23068379806821
H           0.75497087644350   -0.90412099568358    1.07638581810617
H          -0.04122443027129   -2.24443881080194    0.62147008956835
O           0.43503721174969    0.56711417923208   -2.17813817922249
H          -0.37459860966297    0.41073645698119   -1.66219724016664
H           0.83049549352601    1.35533438473270   -1.73659294592574
H           1.30052811717270   -0.68578809481521   -1.87401363061332
N           1.11195879381396    2.52822853000806   -0.45979969195306
H           1.44510332514654    3.46954139972658   -0.63149731965552
H           1.73698080962690    2.09554818078793    0.21020323446885
H           0.20955746328323    2.59727368270640    0.00347099069008
