    23
        -45.36026748  Gyration_radius:  2.31928357472 Dipole_moment: 3.831
 S          -1.21693959582845   -0.30527959395317    1.03559829505065
O          -1.28072294722495    0.54002623912024   -0.16852689240991
O          -2.19906845044979   -1.36874322649359    0.99504924997497
O           0.13316667210034   -0.73895990724237    1.28334327140822
O          -1.63878569585136    0.63872158408174    2.23893551412597
H          -2.58328327856331    0.52398654295641    2.27627641823175
O           2.27741424098414   -0.99652278809861   -0.55037465325859
H           1.99508773459270   -1.60987763039923    0.13871109273474
O          -1.15353648672547   -2.80962855229423   -0.90165143225122
H          -1.55394391985014   -2.36090788835067   -0.11467446434004
H          -1.88344936005865   -3.19992874194697   -1.38726296324023
O           0.13352117574410   -0.77339317128665   -1.76605564739999
H          -0.31422500310497   -1.66469190906873   -1.57785547390183
H          -0.42013486575062   -0.12696630378410   -1.18304056448425
H           1.13406072900437   -0.84593235470201   -1.28524941294391
O           2.11947390654943    1.08216507643185    0.94065297748613
H           1.40903833319843    0.57890458146901    1.37314095617939
H           2.37908434844164   -0.11836959855008   -0.05168406052293
H           1.66312199167446    1.81930411253546    0.47234587894467
N           0.47932442414250    2.82839548933224   -0.33584128561412
H           0.19241004342890    3.65431092358230    0.17360908487735
H          -0.28846717095140    2.15965581040058   -0.30263290726925
H           0.61685317460327    3.09373131684521   -1.30281299128828
