    23
        -45.36026754  Gyration_radius:  2.31947799966 Dipole_moment: 3.829
 S          -0.84497704668080   -1.34664340865500   -0.34960856481961
O          -0.91630387592928   -2.07323692519484   -1.60031328126918
O           0.53315360620279   -1.28460933278769    0.16552723568796
O          -1.43816077341038   -0.03535146212607   -0.37814052167825
O          -1.65446922283827   -2.20903740268873    0.70779231374978
H          -1.55294984474777   -3.09659928914156    0.37834316538118
O          -0.15476054083265    2.48736264047103   -0.51594611686569
H          -0.92144642082080    2.17270000326037   -1.00981061307901
O           0.30225046404736   -0.36098177738881   -3.13294645757684
H          -0.24970650338836   -1.01162802402931   -2.62983608569241
H           0.78717434040404   -0.87015410727295   -3.78605845700462
O           1.43892965807769    0.68411978718319   -1.09200377827315
H           1.15984887751941   -0.10163869580426   -0.48454608249017
H           1.10096003493965    0.38096086395739   -1.99985801400153
H           0.78533331481683    1.54007818248891   -0.81256304414098
O          -0.97815867350648    1.59875085221342    1.74234542375575
H          -0.25463220587332    1.13494703919137    2.22444525207918
H          -0.40886758344588    2.30286411726632    0.44937252219413
H          -1.39584474865891    0.91403503198789    1.19303058026550
N           0.99525969136526    0.00690985574893    2.71198219297033
H           0.92051371406246   -0.60906267070894    1.90398162832606
H           0.79022897240680   -0.54036136747947    3.53809524479107
H           1.95662477629869    0.31657610941462    2.77671545767049
