    23
        -45.36388325  Gyration_radius:  2.31809592473 Dipole_moment: 2.628
 S           1.06339349365248    0.74468952074726    1.02018183507334
O           2.44237652412148    1.07156619003078    0.83499984637634
O           0.15265404813533    1.49731448925258    0.15315611812098
O           0.73238669704334   -0.67086209102012    1.02459736418025
O           0.68399861137043    1.22466229685430    2.51363091518739
H           1.34545199246000    1.88172988193121    2.70682156520137
O          -2.02104533351001   -1.18079182879578   -1.60102103899421
H          -2.45958921521938   -1.99697528104533   -1.35280193570979
O          -1.52061066728684   -0.67418261184977    2.29945690623178
H          -1.35814189691757   -0.09138265278875    3.04527953764474
H          -0.62883472615554   -0.83999057716512    1.90469582957272
O           0.48246617175504   -1.70481939451684   -1.45511233844083
H           0.63031835751514   -1.55546424663175   -0.50538944401890
H          -1.02861117554242   -1.39483923405067   -1.63411935283899
H           1.01748561436694   -0.99214928543754   -1.87762520548114
O          -2.14376632178809    0.58336769136950    0.17658468576197
H          -2.07557524404170    0.06390900694913    1.05591886389150
H          -1.19628752928823    1.04991180756233    0.11128240719595
H          -2.15168771615555   -0.13169711544052   -0.60163373495228
N           1.89714785681416    0.52392885739511   -1.99226915044695
H           1.20929014403974    1.26039835925315   -2.09834652890337
H           2.63554144084443    0.69034985669234   -2.66571437395098
H           2.29163886374670    0.64132635115844   -1.06257275050739
