    23
        -45.36026747  Gyration_radius:  2.31953767166 Dipole_moment: 3.832
 S           0.94773830704046   -0.12160250452470   -1.31795984798232
O          -0.44763212232398   -0.57590445206006   -1.19528977530538
O           1.11022046120363    0.81892625824555   -2.40713034416569
O           1.44949882901000    0.33297645499239   -0.04757484230165
O           1.77952510216466   -1.41099385123555   -1.72129060091603
H           1.75225751780154   -1.39035340492633   -2.67282976563531
O           0.00008513054442    1.30671930765941    2.18344541454351
H           0.80253920905888    1.66140536463102    1.78228672041847
O          -0.17322242054512    2.84074623408082   -1.39200811561993
H           0.40564171987979    2.14651939326461   -1.79707333605544
H          -0.59927881817597    3.29373109663003   -2.12288932505971
O           0.80641127817040   -1.12574926611840    2.15223168303027
H           0.23345078519348    0.33245869924647    2.34682573931786
H           0.10109843762247   -1.72762722475066    1.81862068803849
H           1.28903926281216   -0.83713138287817    1.35931413364303
O          -1.44590702326959    1.26847709592091    0.17566262938143
H          -1.05823899391377    2.02254482016001   -0.38242205818622
H          -1.13315953668859    0.43346455054939   -0.34320549806073
H          -0.86268367531616    1.28191928281648    1.12291145731266
N          -1.08342429890572   -2.54925050711446    0.82165320622148
H          -2.06541823919496   -2.49898707296366    1.06132461443149
H          -0.86952323753964   -3.51160707406481    0.59343500688690
H          -0.93901768460601   -1.99068181754168   -0.01803779396206
