    23
        -45.36026743  Gyration_radius:  2.31936381655 Dipole_moment: 3.824
 S          -1.50939504896771   -0.56325101575860   -0.22585248486859
O          -2.71867565348689    0.17450933210371   -0.52662068115086
O          -0.48152671801552   -0.36860408002387   -1.26219895732791
O          -0.96442569992368   -0.32177859912811    1.08449170355438
O          -1.90065061247127   -2.09904975118332   -0.29988574908603
H          -2.61693695896816   -2.10438746269074   -0.92721833345049
O           1.27317052339723    1.25855821560851    1.81059689923315
H           0.40214683530038    1.22068628341287    2.22365204218444
O          -1.82301591368556    2.58682129383043   -0.14657147444444
H          -2.27406589828120    3.15214911595482   -0.77736597587428
H          -2.25244219132157    1.69701429634095   -0.21690130197034
O           0.57656597071312    1.77357213951142   -0.50739756834521
H           0.25516222060662    0.86726920094044   -0.88068777049877
H          -0.29924167283842    2.26646044027812   -0.36432468741569
H           0.96291480375487    1.56882618336139    0.51565706169713
O           1.52142744053966   -1.28406062906000    1.60707570701440
H           1.55771023819975    0.28467740490981    1.77972012932019
H           0.55342173612943   -1.25841334557166    1.52114316667889
H           1.85147606942462   -1.53684990536103    0.71364985416697
N           2.01425429943225   -1.80761486099307   -1.01046179212310
H           1.12320710298338   -1.39352763585289   -1.27970321132837
H           2.00507588113151   -2.77692910644066   -1.30097480699561
H           2.74384328713694   -1.33607753406258   -1.52982175865483
