    23
        -45.36388338  Gyration_radius:  2.31812338839 Dipole_moment: 2.626
 S           0.72011014368499    1.22881427806158   -0.83576857000868
O           1.39938504347359    0.51614651829283    0.24969286367635
O           1.42951764452723    1.20701010238326   -2.07636452989408
O          -0.68878378685684    0.87499390178972   -0.89379030841351
O           0.70197183512533    2.76937447837051   -0.35494494631229
H           1.43863348879884    3.15251819657073   -0.82088326421213
O          -1.23180804790597   -1.95164702340882    1.64810985360285
H          -2.16885784163009   -1.93281037339698    1.85217946764293
O          -1.59151507781549    1.97856706074801    1.26662312440122
H          -1.18935811858974    2.85062579477284    1.25903126493541
H          -1.41707902698599    1.60785100722817    0.36616587251150
O          -1.10792506411406   -1.79050165512287   -0.90569051949427
H          -1.16625347469715   -1.97728321169719    0.63475134405795
H          -1.16424525763250   -0.82580766469909   -1.01674759636965
H          -0.19940878306474   -1.99821789002488   -1.22834945521552
O          -0.05575713904717    0.18761145284562    2.22047311122034
H           0.64193839724688    0.29081170944709    1.43157089127129
H          -0.74003118611953    0.91888968868647    2.00866373202331
H          -0.53315469058927   -0.73880862308272    2.04470611663202
N           1.47280861769206   -1.69587600506006   -1.67249377998312
H           1.98534544138221   -2.26609532644555   -2.33481335205323
H           2.00838932694178   -1.66225873678905   -0.81294858138082
H           1.45607755633684   -0.74390767933902   -2.02917272867287
