    23
        -45.36026744  Gyration_radius:  2.31923331741 Dipole_moment: 3.824
 S          -1.52310894777188    0.43245451293771    0.37584966770489
O          -0.69708642485147   -0.56633320174623    1.07492020086933
O          -1.97645272375352    1.47446836876674    1.27356092883405
O          -0.85778751752960    0.90390044607890   -0.81047088593173
O          -2.82551345237991   -0.34507685745263   -0.08954440836011
H          -3.41559099037655   -0.22945599281591    0.64875776562919
O           1.91374763902139    0.92850664826764   -1.39895393834706
H           1.26188579715035    1.62674333207818   -1.53411457668512
O           0.30155626391963    2.65608403355231    1.69887592543443
H          -0.60814377154848    2.31370438592370    1.50845647661779
H           0.28384297602628    2.97325157216025    2.60443646046598
O           1.55459912643907    0.53138850706083    1.01696397004482
H           1.78733361721389    0.67392047784635   -0.06165915602654
H           1.22607281099936    1.43691466440927    1.33721570993299
H           0.69337587328099   -0.03510792544632    1.05353702191948
O           0.42773444763745   -0.93330580947823   -2.34408716219192
H          -0.29218803748163   -0.38174472469448   -1.99412562819643
H           1.49106904811756    0.12547346798278   -1.85380786323656
H           0.44661472033519   -1.72911466390354   -1.76319030176796
N           0.26737882172531   -2.84389451501766   -0.42291557897230
H           1.08801535020698   -3.23324825524131    0.02354870261455
H          -0.39189671127730   -3.59752798492851   -0.56923502249464
H          -0.15545791494453   -2.18200046689007    0.22598168199345
