    23
        -45.36388322  Gyration_radius:  2.31811040574 Dipole_moment: 2.628
 S           1.07370439974250   -1.15652910393015   -0.48798394222768
O           0.94209794337989   -2.57922353731545   -0.52483442820578
O           0.19792843838925   -0.45406277308676   -1.42993550214692
O           1.02949810303596   -0.53998385599226    0.82784460550968
O           2.56625905135925   -0.82921398943946   -1.00719140521810
H           2.79840483175845   -1.60478081465035   -1.50838409567755
O          -1.69730017134077    2.16090521307732    0.70251476327654
H          -1.48634867176759    2.76879480615660    1.41386966709657
O           2.22981912691692    1.71098014192163    0.38859177049942
H           1.85982673373299    0.85856861087092    0.72795589401615
H           2.99624563890885    1.45962670915673   -0.13269126637494
O          -1.48308287383390   -0.17179635835077    1.73979697511856
H          -1.70326199629440    1.23415123829837    1.11832135525055
H          -1.86927141520442   -0.85813527151263    1.14612893050129
H          -0.52549352071849   -0.31220066031402    1.64246874583610
O           0.12278061248060    1.98104061993998   -1.01270794465203
H          -0.67450544536428    2.10817838790568   -0.33061219378644
H           0.98948193817624    2.05440616461398   -0.47308254908598
H           0.10061905045833    0.95572835111679   -1.27333814829744
N          -1.91480385485916   -2.03641656247973   -0.15608334601232
H          -2.02280313906602   -1.52022106337728   -1.02133346258525
H          -2.55958993301164   -2.81760233776060   -0.17874279151184
H          -0.97020485653578   -2.41221387498282   -0.17057164131296
