    23
        -45.36388385  Gyration_radius:  2.31826745896 Dipole_moment: 2.613
 S          -0.63889128620802   -1.37527153779474    0.65533020860528
O          -1.83216620848003   -2.08650426165741    0.31914244729341
O           0.38773894160556   -1.40874718168066   -0.38976103966179
O          -0.81689469119714   -0.02783260278129    1.17154064599848
O           0.02315517984717   -2.16935321733298    1.89455738276976
H          -0.35989446224071   -3.03843603237793    1.82676590995801
O           1.32803534102581    2.29143614841120   -1.01323899459062
H           1.48208731863759    3.07303477060062   -0.47895027157206
O           1.41024328714891    0.34197424188691    2.43766801340483
H           0.48217874074285    0.30312660290780    2.09710645555716
H           1.53165537304066   -0.47708646739076    2.92415247928065
O          -1.17612033314469    1.80841684923936   -0.77252089012242
H           0.32411220953939    2.13630349443284   -1.00015121337398
H          -1.47114654917527    1.14219370773727   -1.43727222571681
H          -1.17168872100095    1.30168891726087    0.05776214932062
O           2.22181121974862    0.19421135618964    0.03028893151074
H           1.49092418529925   -0.52616315382576   -0.22673321560453
H           1.90784863208651    1.08468145561031   -0.44501398032092
H           2.06372872820978    0.32203679423799    1.03350394728488
N          -1.78335015022725   -0.44859828822844   -2.11144076299927
H          -0.90054160234270   -0.80796989488143   -2.45548327822994
H          -2.48606329641286   -0.62256645143510   -2.82030114951732
H          -2.01676183639178   -1.01057525896342   -1.29695154920323
