    23
        -45.36026736  Gyration_radius:  2.31911377545 Dipole_moment: 3.824
 S          -0.93358561164050    0.27195633097409   -1.30407964500229
O          -1.29595725311416    1.53354923128074   -1.91582615021327
O           0.52514436294011    0.07064328879921   -1.29635414833356
O          -1.48526117406529    0.05578689573531    0.00787985949616
O          -1.51289193591297   -0.86007943513021   -2.25295489941552
H          -1.51044965633408   -0.44080655068544   -3.10785333943570
O          -0.20170650551892    0.24900639527098    2.52592274468322
H          -1.06547591049363    0.58730085197421    2.26097842625917
O          -0.39908606624449    3.14119698814890   -0.07788941837527
H          -0.08157628083683    3.92681039101854   -0.52843283579725
H          -0.84374987902273    2.58770089501596   -0.76846991955078
O           1.18187379733469    1.31836055558814    0.77501103050862
H           0.62683647503905    0.82771369065231    1.60503862699108
H           1.02366613960711    0.73564363112865   -0.06130898959870
H           0.64557767386023    2.15208090254366    0.55633166183837
O          -0.53269426502655   -2.04794757525222    1.43840103865908
H           0.26681479396667   -2.31592693772759    0.92845339741908
H          -0.24253248646234   -0.72846684945799    2.25540609762738
H          -1.07752325688785   -1.54585502454289    0.80904723377562
N           1.56310643722563   -2.41559455992342   -0.24668173751581
H           1.52718904910547   -3.21473811153492   -0.86646541841806
H           2.52373980504067   -2.29628271795901    0.04883521554744
H           1.29854171784768   -1.59205229553588   -0.78498884158760
