    23
        -45.36026744  Gyration_radius:  2.3193757002 Dipole_moment: 3.824
 S           1.35332597498461   -0.43428049658630   -0.79348841996034
O           0.59279492496220    0.81362585850725   -0.97453510686702
O           2.73398250626609   -0.17351679948811   -0.44281333361165
O           0.66181025885083   -1.32768070785022    0.09867861291769
O           1.38450674459687   -1.12306595698024   -2.22243641582551
H           2.17851157529408   -0.76860858091174   -2.61039890199798
O          -1.23697462516563   -0.70749442317016    2.10875874526163
H          -0.48274683168065   -1.30721670247000    2.15587094485043
O           2.37105616794865    0.75261882595321    1.96063702297065
H           3.04300187789809    1.42274981341491    2.10348850116676
H           2.58778229892324    0.32472739038118    1.09401254376661
O          -2.03147139163841   -1.54611646034608   -0.17886996153813
H          -1.73072366473512   -1.02068118229202    1.27898304992951
H          -2.25273447606380   -0.79204231952127   -0.77338492579056
H          -1.08413485053022   -1.71128641706324   -0.32143334050064
O          -0.05263786341810    1.34224349522091    1.38806684008380
H          -0.64566293530069    0.46759745942335    1.73585014604565
H           0.87549306850727    1.20074799558178    1.77390934597544
H           0.10903603363647    1.19788055226030    0.37945724667188
N          -2.17570058992300    0.63297552589945   -1.79088362061126
H          -2.67388111836659    1.47221687818679   -1.52276916101581
H          -2.34493573942118    0.47414954583159   -2.77587718623276
H          -1.17969732553499    0.81045671622118   -1.67082262562612
