    23
        -45.36388339  Gyration_radius:  2.31813705579 Dipole_moment: 2.624
 S           1.56976313463402   -0.17550110506553    0.48177218176205
O           2.37411235243813    0.65600548149591    1.32096438083494
O           0.45853783063817   -0.82700768465818    1.18049113973437
O           1.12778827823619    0.41174979169283   -0.77252121079853
O           2.51884446917907   -1.39387824157499    0.01328797857721
H           3.19839576060375   -1.41047212103515    0.68002763083968
O          -2.69284160271273    0.04293710922257   -0.88909819066156
H          -2.92522417823006    0.10067089191001   -1.81795106451321
O           0.62553284063582   -1.69793546688898   -2.18576234275020
H           1.38271546609623   -2.26508213766750   -2.02048107155402
H           0.87868873498700   -0.81724486897079   -1.81297051754966
O          -1.15462745580219   -1.86943314169644   -0.37528171994457
H          -1.85844652832919   -1.10695651232239   -0.57616728679609
H          -0.53944100067620   -1.92780255033711   -1.19135013140667
H          -0.51576918491149   -1.46521682763124    0.36512302704550
O          -1.05522985815546    1.97348078852344   -0.49582394330400
H          -0.22633432725295    1.55221243112791   -0.78141890917071
H          -2.11253985970589    0.85361601731983   -0.69452770978887
H          -0.90852453260179    2.12069024752682    0.46829810906472
N          -0.17798588352095    1.89938769228652    2.05007061266638
H          -0.17699807242730    2.61411081226496    2.76820199313054
H           0.78958368813431    1.67234971812486    1.83575160999010
H          -0.58000005116610    1.05931968630124    2.44936543461548
