    23
        -45.36388337  Gyration_radius:  2.31806828511 Dipole_moment: 2.625
 S           0.81339365592611   -0.33354858048967    1.39799171685733
O           1.02830975117965    0.90410031861681    0.64327840998263
O           0.43076823004028   -0.12335311473651    2.75893316536239
O           0.00575197196820   -1.27569159152961    0.64064234123177
O           2.26667962591505   -1.03403580909576    1.44238751031917
H           2.59930676763791   -0.79297511644070    2.30134040642370
O          -1.16368075092158    0.55392573131579   -2.52604386233310
H          -1.37852147638672   -0.13824172859066   -3.15438920128765
O           1.63469014991997   -1.95071960499137   -1.25452234306280
H           2.46418122867640   -2.10270636879467   -0.79494564263268
H           0.95514816664609   -1.87714241768267   -0.53937676043922
O           1.23196617895212    0.50481620019270   -1.78746162514873
H           1.46446146287084   -0.49112190798339   -1.74341236042303
H           0.24155576226922    0.57239508597953   -2.15027196172679
H           1.16870009879836    0.77101264112736   -0.76526860036650
O          -2.26113984792890   -0.18147445264881   -0.33105195224733
H          -1.66434607465975    0.32315121636374   -1.67285201737498
H          -1.57153411639963   -0.77599000434762    0.01120313795274
H          -2.26479454292785    0.55487497257032    0.32504795573901
N          -1.65386674368150    1.58648940608894    1.60860656527900
H          -1.08275655352503    0.95806860338396    2.16770058219098
H          -2.25357079820026    2.10465665247926    2.23976459022364
H          -1.01070215634888    2.24350987944951    1.18269995549447
