    23
        -45.36026753  Gyration_radius:  2.3193050361 Dipole_moment: 3.823
 S           1.39649091510924   -0.62295757360932   -0.55809925591801
O           0.97765395686116   -0.53509818351953    0.85094299581868
O           1.69114976769556   -1.98726295670929   -0.94420641861885
O           0.45876758494814    0.05767527026445   -1.41223964962293
O           2.77093431849708    0.16525548792385   -0.64191487076230
H           3.41474941195291   -0.51440765303902   -0.46814594740380
O          -2.27974272251915    0.61951454095917   -0.94622665902433
H          -1.86231673069371    0.27461945033932   -1.74468261345030
O          -0.72497660487493   -2.94975256292303   -0.89629015313018
H          -0.65404153869257   -3.86164262878119   -0.60584318682980
H           0.20287466863131   -2.62789807761386   -1.02485965965669
O          -0.52150747577795    2.44314734415266   -0.55881575621199
H          -1.73635639072153    1.45210479933548   -0.74133445965693
H          -0.24236631971938    2.46857953629288    0.38595310530838
H           0.07393862072028    1.80131454476257   -0.98122500102803
O          -1.46438174107862   -1.06657551996383    0.67107852465395
H          -0.48953371093338   -0.78567816564466    0.85800733531169
H          -1.88811930311021   -0.28945928716153   -0.00301009499289
H          -1.34018966519349   -1.88458721388402    0.08298987107702
N           0.42453057972119    2.07815068405872    1.95873585863541
H           1.22730727178976    2.62647707345599    2.23971906365508
H           0.75378955190856    1.14405418467590    1.71988251196338
H          -0.18865445937729    1.99442688897134    2.75958446132469
