    23
        -45.36629909  Gyration_radius:  2.36399266505 Dipole_moment: 2.413
 S          -1.70333949779943   -0.60675405129193   -0.29479246105315
O          -1.20147496359779   -0.38094538951454    1.05865903782029
O          -2.65666627832597    0.39313813321103   -0.70650002831133
O          -0.61653986392034   -0.84324074232260   -1.22850451784300
O          -2.50622910879355   -1.98119259585436   -0.23709086232669
H          -3.36214118209719   -1.68233364473536    0.05073655548354
O           1.94017571530967    1.39197378700462    1.28402084147878
H           1.41004442388608    2.02943075286617    1.76739003823646
O          -1.44861060620381    2.72541447492730   -0.39055827619595
H          -1.89203075589238    3.32226587227030   -0.99648536482532
H          -1.95606467079586    1.88541677936625   -0.42488708052144
O           1.12749085913427   -0.96434385195536    1.73451043643619
H           0.12844221317577   -0.78296663294089    1.53272050280343
H           1.46809437043430   -1.50059785105905    0.83717651076933
H           1.54435769491503   -0.02483462312703    1.65780106412646
O           0.81404711268836    1.43457780131085   -1.06022685223351
H           0.08808227783657    2.06473931512873   -0.87498491748451
H           1.61435123330816    1.44002751871800    0.33773121969837
H           0.35893810838508    0.59129150625295   -1.23512320964613
N           1.71427474858981   -2.05838695156500   -0.45027304464778
H           2.50293154578336   -1.64150719971595   -0.92827545729502
H           0.85142105367198   -1.74606096656726   -0.91570841315542
H           1.78044556039075   -3.06511148051540   -0.51733572119581
