    23
        -45.38252905  Gyration_radius:  2.27579191137 Dipole_moment: 2.958
 S          -1.51173944275239   -0.86146080613284    0.78581415063587
O          -0.58969063048071   -1.72521758328366    0.05397678790556
O          -1.06791719089921   -0.66064750494026    2.15880095443938
O          -1.79561744983107    0.37327916900289    0.08875244960496
O          -2.88458572884566   -1.64686036549585    0.87285515031861
H          -2.68137788636168   -2.37803569460837    1.44805220694699
O           1.26514368317704    0.78734496519071   -2.03074992050926
H           1.65148575151522    0.99466596796315   -2.88237283629063
O           0.10903958941117    2.25978023856573    0.00069237257883
H          -0.72568880071830    1.74999041285220    0.01630410601653
H           0.58164602118438    1.93855480195710   -0.78790806018511
O          -0.97451840275609   -0.55578048374705   -2.28693493219829
H          -0.78668446647934   -1.24139111294804   -1.61811417100131
H          -1.59079376392145    0.02200755496578   -1.81414067553403
H           0.42488590329677    0.28291258299666   -2.21873458952712
O           1.97654406451792   -0.95144925218193   -0.00961829926014
H           1.67162766573627    0.03012083222473    1.20414076728269
H           1.12098562441365   -1.42741964391240    0.00072912402999
H           1.93105263128643   -0.37831575397203   -0.79601644126723
N           1.13386296704512    0.69905345437793    1.83702381179413
H           1.67579968209737    1.01474182157929    2.63314105343119
H           0.26085855426495    0.17534876263721    2.13093677314027
H           0.80568162510255    1.49877763689944    1.21337021765105
