    23
        -45.38252892  Gyration_radius:  2.27555967819 Dipole_moment: 2.973
 S          -1.35746527910494   -1.14802157375438   -0.69423209612981
O          -0.58821787731856   -1.55452105326103   -1.86274415648603
O          -0.71674763931274   -1.59092222619618    0.54046371120206
O          -1.68104723083082    0.26164095543769   -0.68382687223925
O          -2.73880606133412   -1.91834496909554   -0.78162807050088
H          -2.47600591272004   -2.82223195945371   -0.92559572076563
O           0.81948480624884    1.61820800896397    1.74746807726557
H           1.01119579115700    2.18615289099260    2.49451514985163
O           0.31434586534307    2.03712277455799   -0.93521946720082
H          -0.53693344869525    1.55545179540871   -0.94161931489019
H           0.55699654716260    2.10000543928557    0.00593420878622
O           1.82170600047713   -0.81313969025791    0.90964755206896
H           0.95224222395368   -1.26300422239837    0.88782389451220
H           1.90272670024002   -0.46332708842320   -0.64008952119182
H           1.64617351512903    0.04383226142561    1.33811442845204
O          -1.53119207036489    0.47566396449655    1.97919662463340
H          -1.95325038507611    0.76794341629792    1.15784093616061
H          -1.25587235869104   -0.43200934936278    1.75127006277758
H          -0.08439722173769    1.22953901236549    1.91458726899317
N           1.59234297263899   -0.14673865337790   -1.60987246547265
H           0.76798273460091   -0.76307430153914   -1.86150369282285
H           2.33243125845295   -0.19829323090743   -2.30034664130465
H           1.20230705978258    0.83806777879057   -1.49018392568641
