    23
        -45.36629883  Gyration_radius:  2.36428388424 Dipole_moment: 2.429
 S          -0.33908094309765   -1.79032981336044   -0.16512003214688
O          -0.81756460955227   -2.45132966394852    1.02319400153809
O          -1.27770226546084   -0.78923671049673   -0.66715436775626
O           1.00679304468245   -1.25336640146053   -0.07231236629738
O          -0.25939576128716   -2.91367596034039   -1.29154346074782
H          -1.00498965980984   -3.45807066304385   -1.06260421762132
O          -0.62724980138656    2.61687450971297    0.35444065908148
H          -1.49814192985777    2.54250250564828    0.75068291968191
O          -1.35841626936459   -0.52564993076153    2.75494100891208
H          -1.26214189970031   -1.25392248085913    2.10338292308904
H          -1.28923635380114   -0.93791479225309    3.61821261330854
O          -0.51589049001340    1.29572842884251   -1.80282380293833
H           0.55850619188341    1.09390172126247   -1.89652020587901
H          -0.88819389267836    0.40987379297073   -1.41609353511536
H          -0.59833392755971    1.94052951352257   -1.00227225453911
O           0.70533050126058    0.79789730585126    1.64915141203400
H           0.94320505304199    0.06370136942749    1.05483371052100
H          -0.04023845583227    2.00423786720845    0.88787020071890
H          -0.01396504329521    0.43353379004228    2.20447101637910
N           1.91636244322729    0.65976413777062   -1.81426523065286
H           1.77384663957401   -0.15713265008433   -1.20544672739044
H           2.52335544399521    1.31232399199960   -1.33476514425061
H           2.36314196498234    0.35976011233765   -2.67025911972609
