    23
        -45.36629881  Gyration_radius:  2.36419049987 Dipole_moment: 2.419
 S          -1.73182790078126    0.56692685534411   -0.17293876419924
O          -1.34419590705911   -0.80197492742209   -0.50621489065697
O          -2.49020812823181    0.64555633788784    1.05045940799241
O          -0.59926596248832    1.47180489528271   -0.25535702806610
O          -2.71877270039199    1.03283345452223   -1.33302769571438
H          -3.54865445244932    0.69190440752790   -1.01710075744862
O           1.98135610280171   -1.77735384942402    0.52367522869490
H           1.50471699380912   -2.43311686174358    1.03724221365555
O          -1.00589864103085   -0.52740407351059    2.90012574793136
H          -1.29499896468671   -0.14732533527113    3.73197530236626
H          -1.62014611314378   -0.17637452804158    2.21921019180161
O           0.79680533701018   -1.33179366137252   -1.66936981433570
H           1.14581364627579   -0.32246870115690   -1.92038515316022
H           1.35037491315622   -1.60871847455885   -0.84451811629199
H          -0.14068184961229   -1.16174091231278   -1.26319881137762
O           1.11104196810657    0.44455545440075    1.55606933472292
H           0.56348436182554    0.92704093895671    0.91089189654332
H           0.46459057179529    0.08255076821470    2.19612191144043
H           1.76052944656945   -0.89654353790066    0.94785445842032
N           1.44028447333051    1.06943419250995   -2.04457635124639
H           2.32587103587913    1.33527986383164   -1.63313033843612
H           0.68455496469164    1.43413114797344   -1.44952971244299
H           1.36522680490715    1.48279655630930   -2.96427828017079
