    23
        -45.38252911  Gyration_radius:  2.27573562603 Dipole_moment: 2.961
 S          -1.90726448220277   -0.06359735739814   -0.05221748842272
O          -2.05453502862683    1.22063631176149   -0.72412873239558
O          -1.20995706454234   -1.02614167428375   -0.90016975617729
O          -1.32727436650732    0.04348143168697    1.26813199903260
O          -3.37276383204614   -0.62888026925328    0.15229279419392
H          -3.75768470039301   -0.55613314859162   -0.71571303181966
O           2.21083433844052   -1.01790447684662    0.64794821188385
H           2.97135675541399   -1.53463086132477    0.91638670012813
O           1.02086176077115    1.31210600620512    1.53407300034099
H           0.13244626150876    0.91968040354276    1.65085788384985
H           1.60542417887884    0.55445217940293    1.35322714629485
O           1.19992553494572   -0.28752163213392   -1.81366976836311
H           0.84145207993816    1.21559497856434   -1.43579051605283
H           1.73652698113100   -0.59985080296857   -1.06302409661928
H           0.31094300694881   -0.66745898498298   -1.65859686960456
O          -0.03503859892829   -2.29762151549914    1.09977104964788
H          -0.49425209323660   -1.66594795737670    1.67196724222193
H          -0.45288968873374   -2.12699847050676    0.23444854819069
H           1.40734962110810   -1.57255467111086    0.85452746943130
N           0.41494427404485    2.03805138912430   -0.90791443576684
H           0.64030177795471    2.93545206167048   -1.32145139106566
H           0.74827389490639    1.94872059016052    0.10066645152044
H          -0.62898059077275    1.85706647015107   -0.89162242044147
