    23
        -45.38252913  Gyration_radius:  2.27572509046 Dipole_moment: 2.961
 S          -1.72371967306890   -0.80746083688507    0.14439443505450
O          -1.56366128326901   -1.64999675484886   -1.03330437028343
O          -0.76064804138910   -1.16273149551844    1.18266798797549
O          -1.72516380681526    0.60661868773992   -0.15845503237328
O          -3.15677575282910   -1.13550209548646    0.73416880612752
H          -3.15672388783151   -2.08611620078141    0.79135549154459
O           1.74107890221522    1.61615333020409    0.83668380687185
H           2.31862314154985    2.23603784755417    1.28347030754993
O           0.33665028996000    1.62126648304657   -1.54176948707117
H          -0.52993813782428    1.42235950118917   -1.13388475495230
H           0.93065919558069    1.79624706410796   -0.79007216902678
O           1.82533947405363   -1.11872360711727    0.47696589849001
H           1.37168733873514   -1.12587741020219   -1.04775812110221
H           2.00693918322793   -0.18063603619555    0.66654715004779
H           0.94301149400082   -1.28482788314009    0.86758886602757
O          -0.51791666783534    1.29416577485808    2.13239749430161
H          -1.15777597897135    1.54027305497032    1.44876434277940
H          -0.54681634542481    0.31939812506386    2.09433037513502
H           0.91297647166687    1.55475420472849    1.39019750929550
N           0.78295042932767   -0.93194009841861   -1.91537799323014
H           0.67835450899836    0.12734875354465   -1.97273783378046
H          -0.18143824176810   -1.31320817277419   -1.69760386748281
H           1.17230737771485   -1.33760222563189   -2.75856885189923
