    23
        -45.37890804  Gyration_radius:  2.28760074594 Dipole_moment: 2.690
 S           1.41073699714922   -0.88051060299453   -0.05139617430264
O           1.46629787471435   -1.35198862470777    1.31072167304430
O           0.39180068279031   -1.57950836603736   -0.84036741751456
O           1.26081705825385    0.55829617231960   -0.17512965638248
O           2.80612156698813   -1.24820729896468   -0.70711839645531
H           3.10802009615302   -1.94465199113770   -0.13321782988455
O           0.40480071414043    2.09303001541277    1.86787711263218
H           0.90194859255622    1.59564126556816    1.19163300239469
O          -0.36456965031600   -0.19613908617700   -3.01420657504625
H           0.39469312103874   -0.06298853668460   -3.58315611546483
H          -0.06104988923000   -0.78169093893604   -2.29118946761175
O          -1.04201702279232    1.58219122386191   -1.09132224685599
H          -0.12422005921911    2.73400052309988    1.38776460014841
H          -0.13069754479304    1.41807928758613   -0.77624997803750
H          -1.03584372900952    1.18173516327288   -1.98025039845424
O          -0.61702974468636   -0.28605384381617    2.59024965840909
H           0.18321236669553   -0.78601423587376    2.32706125118851
H          -0.32089004623872    0.64763277273621    2.59536032651675
H          -1.43879870872343   -0.43333130443115    1.30012483210458
N          -1.76501560218863   -0.54761304058102    0.27633456674819
H          -1.69474882125390    0.38897597224866   -0.22419505368580
H          -2.69252830254755   -0.95186313754475    0.20757735759771
H          -1.04103993946312   -1.14902139821773   -0.18690509107323
