    23
        -45.36629912  Gyration_radius:  2.36392359683 Dipole_moment: 2.416
 S          -1.33143958632453   -1.12943602696998   -0.55255448044099
O           0.07377239551726   -1.52487659944992   -0.61269753812187
O          -2.05257363634117   -1.80351214035926    0.49799835737089
O          -1.47464329500459    0.31558618276531   -0.56908445389824
O          -1.98145991559484   -1.62554342650145   -1.91939299228998
H          -2.20382622132695   -2.52441397128191   -1.70191576622864
O           2.38359990977420    0.65550661556420    1.11479992973294
H           2.56341893687148   -0.13529170312410    1.62796541205981
O          -0.70668852775710   -1.32420851908953    2.72447247003052
H          -1.17068689578673   -1.60082266402814    1.90444675633788
H          -1.34762867649036   -1.42106831799827    3.43143982950245
O           1.87781400470815    0.05701157651075   -1.29357558247936
H           1.27707955669397    0.91575880587276   -1.62392592584634
H           2.21499835097949    0.31264389814964   -0.35355653532042
H           1.16260956071460   -0.66249282918326   -1.08709386647136
O          -0.12948571363550    1.06893378728998    1.64112181730880
H          -0.30269695532364    0.28804009974014    2.20564622503084
H           1.44925586842332    0.92275622175129    1.35908015483247
H          -0.67341628033888    0.91504620715818    0.84781678870720
N           0.30632598571098    1.92364658803867   -1.89547817871049
H          -0.51628643480676    1.44824865388446   -1.50068484950239
H           0.12550648729782    2.14698958871167   -2.86490244390156
H           0.45645107197882    2.78149798280295   -1.37992513741230
