    23
        -45.38252910  Gyration_radius:  2.27556063769 Dipole_moment: 2.967
 S           0.53517209815327    1.61055658088664    0.87318929478632
O          -0.28544055539414    2.47989715456232    0.04063398863818
O          -0.29061805629219    0.70026929080076    1.66108504483382
O           1.57615796254610    0.92807250053834    0.13678253231839
O           1.27274075113844    2.55431738056574    1.90973034804274
H           0.56420052632514    3.07743462550451    2.27188665500501
O           0.13007684777613   -2.50192667263875   -0.25625245500383
H           0.25021155043311   -3.45139068256172   -0.21765305306160
O           0.88710025507596   -0.51387670742469   -2.01765889774868
H           0.68159453011424   -1.34883271042014   -1.56027301855578
H           1.33605603108243    0.03545678523377   -1.34427621495428
O          -2.00425042385126   -0.84052827435739    0.29182748146305
H          -1.52185352938734   -0.29139413666638    0.94345924150874
H          -1.82003448466104    0.12650672446057   -0.95760847863627
H          -1.40566228409664   -1.58614192959797    0.10565821598899
O           1.46363542544600   -1.28061446421398    1.64516991750811
H           0.66733562609100   -2.12021095840186    0.49314310376641
H           2.01251088665969   -0.67834772134785    1.12180267920751
H           0.74673522476639   -0.69039589183894    1.94451292322103
N          -1.34947848103213    0.79545701381238   -1.64184992492411
H          -0.98719456340578    1.59849950782254   -1.05302359136358
H          -1.96953803825109    1.11151075126147   -2.37856897977514
H          -0.48945728923572    0.28568182402707   -2.01171683226026
