    23
        -45.38252918  Gyration_radius:  2.27567421783 Dipole_moment: 2.966
 S          -0.77278326351824   -1.41232764760977    1.02552973916508
O          -1.47864840271177   -1.05126089717531   -0.20037558026290
O           0.29994213284769   -2.36055443499055    0.75622953714039
O          -0.34115426622431   -0.25920565971641    1.78418504522087
O          -1.82121558565646   -2.17424276594136    1.93621568914577
H          -1.97261129004863   -2.98622148978436    1.46217785590881
O          -0.06160828980601    2.36065788628298   -0.87587664774186
H          -0.23205159621565    3.25806361853786   -1.16411883159296
O           1.72842243061201    1.17777960353415    0.86364713667181
H           1.22925760938863    1.76993030118407    0.27312859744790
H           1.04604399019128    0.72910638786389    1.40204851479067
O           0.01942670501319   -0.06365741509995   -2.19210791981600
H          -0.00343122915890    0.87516751647680   -1.93324068368980
H           1.30894645581111   -0.63745161516337   -1.45828102613542
H          -0.64829824190695   -0.49524779761821   -1.62057613367594
O          -2.03886640432038    1.41750862623372    0.56862666262199
H          -2.11749175946859    0.55161908228568    0.12569323502643
H          -1.57197372468691    1.18322493505334    1.38397323480507
H          -0.85450779327773    2.08338114264312   -0.33705364402013
N           1.95731307321296   -0.93547417893749   -0.66593523663743
H           1.40348943179146   -1.63114668341234   -0.08963484491328
H           2.08806092642804   -0.07558534520958   -0.04968956750973
H           2.83373908169632   -1.32406317943375   -0.99456514193619
