    23
        -45.38252917  Gyration_radius:  2.27570434326 Dipole_moment: 2.962
 S          -1.65266526709852    0.88121789462828   -0.36909158679141
O          -1.58061256217962    0.15959952013180    0.89807667264589
O          -1.10589031868141    2.22557351759708   -0.24183259481670
O          -1.08820566153032    0.13503918509400   -1.47183487875221
O          -3.19272337598096    1.05677645060162   -0.69549024790770
H          -3.49097542310395    1.66044070997775   -0.02201135191640
O           1.34485329740659   -2.11151216629323    0.27646758203436
H           1.71993744068689   -2.98573762828666    0.38802086323435
O           1.57847389729008   -0.11400716527100   -1.61692151716546
H           1.67140788072415   -0.90267791502112   -1.05313764739744
H           0.61840906352644   -0.04299960604822   -1.79044689604684
O           0.84471850892160   -0.03484960112208    2.02374665403325
H           1.14349849267959   -0.84619210083097    1.57501088295196
H           1.34053270679441    1.13998133269616    1.07252217881233
H          -0.10883336696453    0.02996088093325    1.81096428615760
O          -1.23254280535120   -2.22009432544464   -0.20357285841028
H          -1.50757873483568   -1.52845001406300    0.42762565272876
H          -1.28086392903802   -1.75026028751908   -1.04877362222762
H           0.37200687572879   -2.24403056208711    0.09773456942596
N           1.41996378119680    1.75804230678983    0.20727847282347
H           1.66720798977018    1.10794783645306   -0.60055912621453
H           2.08126570495762    2.51758001352477    0.32090743590196
H           0.43861581507150    2.10865171356504    0.01531708691171
