    23
        -45.36629895  Gyration_radius:  2.36394833852 Dipole_moment: 2.407
 S          -1.38311083173578   -1.12601368614480   -0.41991343008458
O          -1.77599321443197   -1.13656753436878   -1.80686956232248
O          -0.02832717231093   -1.63384829759186   -0.21607724360578
O          -1.58243150361469    0.13745702633757    0.26752114045083
O          -2.34873895935919   -2.15560808053381    0.31780547605588
H          -2.46836762353960   -2.81320822609731   -0.35896932918829
O           2.56245171195595    0.88277890288345   -0.02513002876104
H           2.89935329513460    0.42512321613016   -0.79850313895085
O           0.08303972058735    0.23156569948663   -3.09916601046226
H          -0.56726160208109   -0.36197117943645   -2.66426135951630
H          -0.34561579592780    0.54712949053189   -3.89706400010523
O           0.25888601779800    1.73748536191033   -0.87760952761197
H           1.71433263018139    1.32303933708375   -0.32672315982716
H           0.27029721919904    1.34775782051371   -1.77560092662848
H          -0.46589862086424    1.27042651303226   -0.42432820514248
O           1.47133405720259   -0.75285560267940    1.57119257013454
H           2.03115832526170   -0.10855273987737    0.99311896366224
H           0.77226882546644   -0.10796944316767    2.12056455483486
H           0.86360026713083   -1.21283030110606    0.87025098789574
N          -0.27469147469577    0.73155450685170    2.60340936967159
H          -0.71012475395679    0.47684451521672    3.47969009513352
H          -0.94700333943685    0.58519612310103    1.83857836819485
H          -0.02915716808704    1.71306654785963    2.62808441585550
