    23
        -45.38252912  Gyration_radius:  2.2757305647 Dipole_moment: 2.961
 S          -0.25084762560987    0.23730120217991   -1.87752618950565
O           1.01462509108796    0.72159923579965   -1.33365585479822
O          -0.17999557780363   -1.18357518516362   -2.19145939998137
O          -1.38573878857564    0.58589892285806   -1.05183677686776
O          -0.45968254985925    0.98742319329193   -3.25697612783945
H           0.22900811861510    0.62736881114275   -3.80740445461547
O           0.19499419633968    0.95206184480189    2.32359757746372
H           0.28699697122379    1.44988272471751    3.13672042350909
O          -1.73188173925389   -0.72027568232389    1.26507993927508
H          -1.16852975987980   -0.15580758880468    1.82409437350303
H          -1.83194598008858   -0.22271541090588    0.42881712151154
O           1.95331934203167   -0.55881231539491    0.82669411567669
H           1.81376663313378   -0.05790538633235   -0.00294630842580
H           1.49155981366640   -0.03970615137828    1.50950654199341
H           0.95442734352314   -1.75471424095686    0.50654787190074
O          -0.08487650834844    2.53382029259235    0.24873544303427
H           0.55730405220841    2.08875562342581   -0.33607408870070
H          -0.92948032573102    2.22163188514936   -0.10696202160992
H           0.09284302151705    1.62400097072255    1.59287010801666
N           0.07921215143381   -2.26164498351917    0.16881371653696
H          -0.73833450971106   -1.82680702083419    0.69685039861534
H           0.13385428784973   -3.26726891172327    0.28228785574214
H          -0.04059766777095   -1.98051183935610   -0.84577429443943
