    23
        -45.36629877  Gyration_radius:  2.36428574622 Dipole_moment: 2.431
 S           0.49011051394469   -1.56152423023231    0.81732098509193
O           0.32081498122656   -1.48243066391929   -0.63192469955679
O           1.87405581779973   -1.65885034382675    1.20865395973356
O          -0.27108991653093   -0.52768006144818    1.49559543078515
O          -0.18955604891576   -2.93259435821723    1.25930523338871
H           0.52205611781836   -3.54679801148865    1.11422451183097
O          -0.03774451410640    1.84962588004779   -1.98614301309757
H           0.75857802189319    1.61475553271205   -2.46750849925035
O           3.08750911548238    0.41423753140256    0.09967910662454
H           3.85802002510793    0.57634082073641    0.64742607038457
H           2.68792119750965   -0.41533641634626    0.44067559567358
O           0.77725437001519    1.73774278859559    0.48040715047164
H           0.24405068083185    1.92171704426212   -1.02704252081644
H           0.35193332974842    0.99472074407272    0.94503538546927
H           1.69673835358627    1.43469017559147    0.33472193984974
O          -1.52465373332555   -0.17762139874993   -1.68489184144744
H          -2.11159033945662    0.09400268371888   -0.79871105271315
H          -0.99013362357310    0.67163582722460   -1.92271563562509
H          -0.79330325331791   -0.80190168137769   -1.29973519976205
N          -2.64516318749025    0.40613534653185    0.48869024619300
H          -1.86987928379347    0.04636145096908    1.06120763369464
H          -3.50112358468422   -0.05642908844351    0.76386046440306
H          -2.73480503974657    1.39920042830038    0.66186875894743
