    23
        -45.37890778  Gyration_radius:  2.28773686956 Dipole_moment: 2.703
 S          -1.00617346047284   -0.99815497278566   -0.87051873865817
O          -0.03063925928921   -0.39943005752937   -1.78679987108279
O          -0.57679564698726   -2.28484442199177   -0.37988890815450
O          -1.37728583143231   -0.05908955387628    0.17265207065009
O          -2.31304120656920   -1.26136641971094   -1.72772466074125
H          -2.21636554306124   -2.18294232189958   -1.94441698660815
O          -0.62520198847585   -0.39311931902121    2.73889742309550
H          -1.07266908100958   -0.36025348438636    1.87256850009803
O          -0.31626000029943    2.26120722796319   -2.01120222175978
H          -0.22691349434313    1.28703295615506   -2.03864872768130
H          -1.18799888395839    2.45681792733102   -2.35715162237878
O           1.27256571899003   -1.82766652995927    1.48672813860284
H           0.69248654987972   -1.43659791443126    2.17224748886927
H           0.64659960922222   -2.22137924771393    0.84427698644487
H           1.76556988521704   -0.63294222154506    0.65527838732800
O           0.16494233207088    2.08287851780703    0.64528551426051
H          -0.53702394771297    1.40249864391610    0.61313648261814
H          -0.47163194113785    0.52013724815312    2.99110234331392
H           0.08173085043162    2.51706305333475   -0.22367435804871
N           1.85861297032544    0.18833415070876   -0.04069736364198
H           2.82337740067389    0.38111326199849   -0.28663308157046
H           1.36363294124790    1.04417019474600    0.35341033092238
H           1.28848201668680   -0.08346670726724   -0.87822713587640
