    23
        -45.36629878  Gyration_radius:  2.36408242457 Dipole_moment: 2.412
 S          -0.54330899324852   -0.88385956558925   -1.50875882811141
O          -0.89606372275571   -0.04774310935832   -2.62880118032183
O           0.87143443154017   -0.78355982073947   -1.15710918252306
O          -1.39038343733543   -0.73657925013490   -0.33868723710905
O          -0.76460327358711   -2.38484611890906   -1.99333485935914
H          -0.51212401883540   -2.32220732407536   -2.90823180321462
O           1.65223470732172    1.53121430587978    1.50868728740417
H           2.17184376546865    1.96048045587411    0.82552006013374
O          -0.12647028490023    2.39884089477365   -1.97946592674788
H          -0.33215471118368    1.48999447394629   -2.28910016838766
H          -0.67956667836430    2.98301636076958   -2.50179051533451
O           1.67421059755816   -0.98121177714345    1.19532731677204
H           1.77439937615625    0.02376971154110    1.40406037570390
H           0.74905598518809   -1.28573123251382    1.70003931485981
H           1.40541622512209   -0.97661273809550    0.19504659902466
O          -0.75570791160526    1.72783953360381    0.54769472460742
H          -1.09487137894856    0.84890400372566    0.30006007112850
H           0.69646848596774    1.66672858290843    1.23917633025059
H          -0.55080988758944    2.15578330087130   -0.30872805824209
N          -0.57804965659174   -1.56925533462545    2.14537886248592
H          -1.07503702604655   -1.36543694365250    1.26808823105236
H          -0.91264794142964   -0.93154765452875    2.85642550344776
H          -0.78326465195359   -2.51798074455085    2.42850306251821
