    23
        -45.38252901  Gyration_radius:  2.27583869819 Dipole_moment: 2.957
 S          -1.26009958463317    1.41493019150671   -0.23474639441469
O          -1.53674140882242    1.10298976283004   -1.63067047718719
O          -1.67577479105698    0.32417457766060    0.64235365361262
O           0.10403442580063    1.83345157931612   -0.00032751732131
O          -2.17369962609601    2.65568421062866    0.13273707227865
H          -3.03778713744410    2.38517972893721   -0.16240663942328
O           1.62832147732240   -1.26950961720609    1.44275107308855
H           2.18104778905742   -1.67854163958574    2.10955369697295
O           2.09236803885808    0.23465659918259   -0.82759633815269
H           1.52114857743763    0.98158971423447   -0.55795338350551
H           2.14556829644354   -0.33462017662067   -0.03926160973104
O          -0.64509219329993   -2.09382559758379    0.11366104215662
H          -0.22983948580829   -1.56023464768117   -1.32597945144577
H           0.17090584612708   -2.01674447808080    0.64015923269291
H          -1.18543820952822   -1.32147125627147    0.37848859675927
O           0.22987642207856    0.71759387348590    2.43353312300279
H           1.13741097702026   -0.53050775114885    1.89957178289832
H           0.51567905060097    1.44658517614487    1.86442667738715
H          -0.62876679135936    0.47598327005913    2.03714544037490
N           0.08799551035073   -0.88485455776880   -2.08756561143974
H          -0.60407937283293   -0.08274144732524   -2.06577775771949
H           0.14366725579175   -1.31612074400307   -3.00302561452209
H           1.01929493402392   -0.48364679068126   -1.75907059634754
