    23
        -45.38252914  Gyration_radius:  2.27573751003 Dipole_moment: 2.961
 S          -1.10124941870894    1.45809469428187   -0.55266108119100
O          -0.22041095090427    1.71496557648886    0.58303403267349
O          -0.40602512780958    1.66529030190952   -1.81604746713036
O          -1.76608502262884    0.17660151406242   -0.46777327034295
O          -2.24282121570195    2.55440675629213   -0.48861851974089
H          -1.77927181920651    3.36362546320046   -0.68145812766593
O           0.59894582950567   -1.78368132493672    1.67444971260872
H           0.73581241968935   -2.38400289784430    2.40816985781352
O          -0.32854804703633   -2.04345344375211   -0.91450266811564
H           0.00639613010021   -2.17220458302003   -0.00912917841540
H          -1.02478562427222   -1.36175244215299   -0.82847640355959
O           2.06768540306158    0.31981043574972    0.65799607364174
H           1.73685334759517   -0.46776697109364    1.12622909547443
H           1.86265634848213   -0.02864293859274   -0.88039099718097
H           1.34395932722320    0.97512991324491    0.73212834569592
O          -1.34068465160510   -0.08559077565480    2.16426247868567
H          -1.93113989285882   -0.26200752930361    1.41752237918073
H          -0.14955523980439   -1.18004397150060    1.94135740256869
H          -0.87851237839428    0.72189011188217    1.86959666108936
N           1.36365798298659   -0.24989564258289   -1.79645242888790
H           0.69637267646498    0.55670089820423   -1.96068342176495
H           0.75632035086640   -1.10466994553462   -1.60493180876354
H           2.00042957294456   -0.38280320935344   -2.57362065667623
