    23
        -45.38252911  Gyration_radius:  2.27573368058 Dipole_moment: 2.961
 S          -1.19643090881574   -1.44507367432087   -0.35326273026285
O          -1.56452155130894   -0.56389999181911    0.75115725258262
O          -1.65865854074863   -0.91293754088356   -1.62826416004750
O           0.20814485067774   -1.78939857309849   -0.35132118648804
O          -1.98482869304421   -2.79982910053576   -0.12490042342090
H          -2.89287932843292   -2.55018695724014   -0.26650713862753
O           1.71668965868705    1.11676468862198    1.46602013686751
H           2.32247240190068    1.44299782964503    2.13237935378272
O           1.98638450077426    0.08166393415343   -1.08077401238906
H           2.10227493497127    0.50430131058622   -0.21103718753306
H           1.49636495899596   -0.74399392550186   -0.89363259704956
O           0.56616417515142   -1.11866039338329    2.21741345893507
H           0.81773746266379   -1.70686585297730    1.49068075163108
H           1.32878010523788    0.27179974579806    1.82857022257710
H          -0.34782724098338   -0.87758945678475    1.97467869280634
O          -0.74536095685437    1.98245462369014    0.56973453183041
H          -1.20426214586103    1.13532222752264    0.74417949088569
H           0.13179875182508    1.87757905692352    0.98031343879391
H          -0.47858596983951    1.74779831733117   -0.98068706284446
N          -0.21771529739139    1.24541163617452   -1.88439351903002
H          -0.85489039851559    0.40034999567477   -1.93596456552900
H           0.76816125608242    0.86679541618697   -1.73981800064155
H          -0.29901201517835    1.83519669423535   -2.70456473684686
