    23
        -45.38252917  Gyration_radius:  2.27574056884 Dipole_moment: 2.963
 S          -1.37957142483500   -0.68055232710328   -1.13044670620848
O          -0.54290008200597   -0.74287907694757   -2.32146635044597
O          -0.89329884909461   -1.58825817588938   -0.09544772762980
O          -1.58458536773224    0.66578029116101   -0.64395862255460
O          -2.80611739426547   -1.21802477249902   -1.56088991111550
H          -2.60689375227743   -2.04191561679910   -1.99489691119953
O           0.78909788113991    0.81550770940713    2.24869868474868
H           0.95932232009348    1.06312063879735    3.15818961485424
O           0.56699217376572    2.18603322411793   -0.13939379088251
H          -0.31721882146473    1.83252382955436   -0.36306146230309
H           0.72710730800521    1.89414222597931    0.77581424369319
O           1.65749127150820   -1.27211218947663    0.66688357342108
H           1.90806448120164   -0.42143647037724   -0.65352921286366
H           1.51543831474184   -0.60106959764067    1.35862357231208
H           0.75921344682002   -1.58847783893158    0.43945362273113
O          -1.66034827068544   -0.07035916055512    1.93068771334100
H          -1.44061289322840   -0.86222813523457    1.40430656343758
H          -0.15543885624067    0.49500258380278    2.21697743347828
H          -1.98750347621922    0.53704699767674    1.25139894283732
N           1.71514411911469    0.24179576904438   -1.46597031449875
H           2.50843499501870    0.34997424812525   -2.08738129032470
H           1.39936970875230    1.16173527885418   -1.02984902922894
H           0.86881317789096   -0.15534942505584   -1.96474262561225
