    23
        -45.37890793  Gyration_radius:  2.28762309604 Dipole_moment: 2.693
 S          -1.18461479315662   -1.07000470625173   -0.46784290874039
O          -0.56915314387756   -0.49580097716316   -1.66829443440118
O          -0.56983977457038   -2.31638617743126   -0.08134207038071
O          -1.25169188542806   -0.08602050421532    0.59755762144581
O          -2.68104495663760   -1.41422327305161   -0.86045853089024
H          -2.61889138103992   -2.34466536547932   -1.05016611842979
O           0.27786773283524   -0.25900526152276    2.80965120383079
H          -0.41874019734007   -0.28555999011534    2.12714205228878
O          -1.02411725275442    2.14019835334475   -1.90472236111968
H          -0.90614959972462    1.16876784146186   -1.91738968293917
H          -1.96788522787506    2.29296725447827   -1.96696586742165
O           1.74851574307870   -1.71053245662304    1.08993045325408
H           1.39521506256066   -1.29778425172455    1.90492128459859
H           0.97044883774404   -2.15466635877436    0.69374762795323
H           1.90724237887946   -0.54995271407787    0.09487016160479
O           0.27070570465176    2.11781192323583    0.47070422901939
H          -0.37723390643885    1.41846154274684    0.68932878131201
H           0.46383450172268    0.67039574122597    2.96070699426152
H          -0.09785255455140    2.50238026761901   -0.34588823384813
N           1.74406450376653    0.23455761562148   -0.62991933006992
H           0.95292984331957   -0.09699902019234   -1.23381294911821
H           2.57507338366938    0.43898836418925   -1.17402409742163
H           1.36131697114036    1.09707214269921   -0.13773384481131
