    23
        -45.38252914  Gyration_radius:  2.27571794664 Dipole_moment: 2.963
 S           1.51622129834533   -1.12905463864079    0.26536589277545
O           2.47041156719747   -0.03239339682708    0.36173196948156
O           0.55020360282462   -1.08610201236167    1.35929698826082
O           0.88816554654133   -1.22977266071612   -1.03342196994750
O           2.35000262167193   -2.46196102705454    0.45857093323208
H           2.84678022084871   -2.29512874174447    1.25377074256557
O          -2.47010692714684    0.29768633504656   -0.39137514549073
H          -3.42124914990892    0.26300067558841   -0.49919873005321
O          -0.34132253819709    0.93500423066424   -2.03188847333013
H          -1.21130354451942    0.80042032831150   -1.61529764810072
H           0.13720590044160    0.09414549024224   -1.88753367119797
O          -0.83242450691665    1.19347749633797    1.64120101691187
H          -1.56709187231143    0.98815211218746    1.03538410708642
H          -0.35268547233742    0.34637767807389    1.74599915084577
H           0.24186574944193    1.91666600377267    0.71731756418687
O          -1.44840099013893   -2.09504076250678   -0.04988795824101
H          -2.16662758919939   -0.64523966811536   -0.27021777151131
H          -0.81394186446866   -2.12854998546298   -0.78050485315574
H          -0.87235345193667   -1.87911050924487    0.70766373329569
N           0.96299220983810    2.05410472637582   -0.05605625962318
H           1.35478294446122    2.98863615321350   -0.07245214752077
H           0.47571356621077    1.79077723611342   -0.96684928662968
H           1.70316268926505    1.31390493673970    0.10838180616376
