    23
        -45.38252913  Gyration_radius:  2.27571738154 Dipole_moment: 2.963
 S          -1.54491534567208    0.63106823770001    0.92694296217873
O          -2.25504123272284    1.03512409386747   -0.27922663555031
O          -1.32714639583072   -0.81239891536998    0.95288639792836
O          -0.33269783108242    1.38506014717154    1.15807352105029
O          -2.50839066491810    0.95867334758827    2.14082520983598
H          -3.33076451202755    0.55435145161787    1.88181364846680
O           2.30380121307660   -1.01752272411610    0.01723707236288
H           3.14914975774088   -1.44123937574392    0.17011745523723
O           1.49812265583546    1.49518764329806   -0.79909467924982
H           0.91780369953095    1.65739237471567   -0.02850369291380
H           1.98025029071998    0.67799619296783   -0.57937713023299
O           0.97268391079536   -0.68180226992209    2.25354967867355
H           1.86899930282031   -0.92766258117264    0.91096657414176
H           0.83592710012944    0.27663797970076    2.24266541679881
H           0.11046328178157   -1.01215256334885    1.93762619432986
O          -0.04676707044895   -1.86434258042754   -1.15468455427276
H           0.86663609563265   -1.74723849888017   -0.83703680019782
H          -0.60751634520413   -1.66805548255183   -0.37639895606138
H          -0.35169178848385   -0.52725941053084   -1.96098324668487
N          -0.51658418105738    0.50903742551534   -2.15037784687123
H           0.34862919056114    1.01799535009454   -1.79162925901472
H          -1.31304080736637    0.79321275037418   -1.51186362828051
H          -0.71791033380934    0.70793740744786   -3.12352772168062
