    23
        -45.38252904  Gyration_radius:  2.27577894701 Dipole_moment: 2.960
 S          -1.52918436145729   -0.88649242005669    0.72142253224433
O          -1.72366615617336   -0.20965879665477   -0.55762270694000
O          -0.99429863403460   -2.22818036335415    0.53132157585068
O          -0.77048980550391   -0.09514844403424    1.66442544377068
O          -2.97014999266220   -1.06800542900037    1.35366790723655
H          -3.38512075988929   -1.69862070776727    0.77308868080353
O           1.22363598425465    2.11543986350400   -0.60924330545979
H           1.55233194669963    2.98926087169895   -0.82336714245059
O           1.86615188397486    0.18973713371240    1.26409988998226
H           1.83046546221572    0.95875843020240    0.66762417041006
H           0.96129740133580    0.11397622984515    1.62805320873859
O           0.42390596330128   -0.02788661892150   -2.15234972601115
H          -0.46674591308507   -0.09588045148177   -1.75142156935213
H           0.79125576584894    0.80228814116497   -1.79904565754245
H           1.12038094506301   -1.16213021566108   -1.28120428608333
O          -1.20785521141465    2.21191521724147    0.37268719547466
H           0.30368295750947    2.24305907738433   -0.24416719713530
H          -1.58848544511626    1.49184209007062   -0.16513380971162
H          -1.07883552932886    1.77683164776716    1.22777858282363
N           1.38198595134488   -1.74801039212706   -0.42953480803519
H           1.77328729663787   -1.06678096210647    0.29092894895647
H           2.02116793157176   -2.50352128171323   -0.64814928363211
H           0.46528230890703   -2.10279259971677   -0.03385865393813
