    23
        -45.38252909  Gyration_radius:  2.27564823084 Dipole_moment: 2.966
 S          -0.36909738824357   -0.01326357559588   -1.87278421952095
O           1.01765318338827    0.18609431244075   -2.27226883775993
O          -0.54094538607560   -1.28579276889852   -1.17803319027966
O          -0.92037504133449    1.10475915767846   -1.13949619567642
O          -1.20688120716889   -0.11998778627458   -3.21288615262593
H          -0.73014064120069   -0.77257060937892   -3.71670991353533
O          -0.78300059913472   -0.13695839101347    2.38971099534248
H          -1.21236146911527   -0.24213806826554    3.23949383719112
O           0.37968271087683    1.97381731167977    1.04006553007326
H          -0.16406998173090    1.87381291419993    0.23313085266731
H          -0.02288276553052    1.36771347876534    1.68747124252109
O           1.00767459194871   -1.68702589540469    0.97313460213114
H           0.43084156951461   -1.27440679255112    1.64091551850656
H           0.45231317101213   -1.74874536233166    0.16908111938493
H           1.94139847450148   -0.49768223470022    0.47880638796459
O          -2.47766713724839   -0.42852535497553    0.40767234386386
H          -1.93266306677023   -1.02588916404235   -0.13842810632537
H          -1.49279438548993   -0.26044656654157    1.69915170084819
H          -2.36742031387252    0.41735095223002   -0.05066004989613
N           2.22942633633100    0.42302250567668    0.02458151041641
H           1.65018913478397    1.18213401576031    0.49843624797758
H           1.88442641369079    0.36844175967166   -0.97582354395389
H           3.22669378686733    0.59628619187057    0.07543831066828
