    23
        -45.37583663  Gyration_radius:  2.2863410201 Dipole_moment: 1.586
 S           0.00552028399567   -0.94099019027541   -1.34561285203696
O           0.83461281580227    0.23795598966022   -1.56792507455322
O           0.42746941040840   -1.70773200928923   -0.18930698022108
O          -1.40780785608379   -0.62303492452743   -1.29354454036580
O           0.23448274118893   -1.85480733665782   -2.61841231590186
H          -0.38493158816548   -2.56658255186348   -2.49151586776709
O          -1.93794368958233   -0.99181790379479    1.40217646966059
H          -1.69073769240156   -1.11286008713578    0.47165990884153
O           3.08231780803268    0.30686219340891   -0.07799214474832
H           2.34435487297748    0.28315206062078   -0.71873867188986
H           3.67696006862476   -0.39905980223717   -0.33478019002176
O           1.15223615529442   -0.10275524411689    1.78004863257312
H           0.86357913055460   -0.81864987970685    1.17127297027465
H           2.05173247368781    0.09654807513391    1.46287607236926
H          -1.19804128124614   -1.31712962100342    1.91875759797909
O          -2.62506716135020    1.33078132198198    0.18438643884261
H          -1.10958751367310    1.72756476326391    0.39216974706642
H          -2.47783398603687    0.76902426945561   -0.59581593334577
H          -2.75205180055318    0.68500840450664    0.89924356435108
N          -0.04204745651073    1.77831182066143    0.39802034475308
H           0.29315443375804    2.72842719701424    0.51869960644322
H           0.29468759027848    1.36856573526008   -0.50591989796323
H           0.36494223853818    1.12321772101842    1.14025311291749
