    23
        -45.36695728  Gyration_radius:  2.45413383232 Dipole_moment: 5.347
 S           0.84623332253013   -0.12549102330925    2.08045804512212
O          -0.48844627502212    0.44532261919454    2.13297924176216
O           0.80022108389682   -1.58747017972686    1.99314866399078
O           1.68607295302495    0.45884023837241    1.06254938179324
O           1.52322763714949    0.20943922940135    3.47992920711570
H           0.84686836825530   -0.06039442487027    4.09328920996932
O          -0.76285308632396    1.39195742570009   -1.84814752037349
H          -1.22805062257235    2.09537552890061   -2.30321368301892
O           0.41829335287835   -0.98507349072612   -2.53326939565256
H           0.06527651513238   -0.10028275289807   -2.32218068339040
H           0.15948501714426   -1.17537027193460   -3.43585057081987
O           0.99749377279823    2.53909642065537   -0.30888881307699
H           1.20899287812102    1.78996136067960    0.30623060955642
H           1.83561858055699    2.76269102851902   -0.71849977713616
H          -0.09798944667764    1.84170755626103   -1.25298825451668
O          -2.07810910339158   -0.05172019406903    0.10884212108618
H          -1.61729484621673    0.22759496208736    0.93572380532888
H          -1.73731746563312    0.54263849052316   -0.58400585437987
H          -1.26062583192740   -1.34404213976650   -0.09695315105599
N          -0.47315345964066   -2.07485402858377   -0.19184889706184
H           0.05915091491200   -1.83369155275306   -1.04698526603739
H          -0.83402581633947   -3.02127547678277   -0.23857573696812
H           0.13093155730855   -1.94495931494928    0.68825732778459
