    23
        -45.36695727  Gyration_radius:  2.4540725939 Dipole_moment: 5.346
 S           2.24070664747791    0.18802760621564   -0.05845134235151
O           1.67608524542073    0.73171587626782   -1.28139815468553
O           2.17186366479831    1.15595267600420    1.03951476452461
O           1.69724462613562   -1.09765050282937    0.30850209952909
O           3.78799617161967   -0.03564967760783   -0.34977281844559
H           4.03729641248055    0.80012922405053   -0.73159818669799
O          -2.02154989256218   -1.00454628953246   -0.91623328716138
H          -2.65135538154863   -1.30225324208643   -1.57425825863476
O          -2.05391862164348   -0.45836768085001    1.76996776984020
H          -2.97234198557183   -0.45236456566807    2.04258232649602
H          -2.04218692702362   -0.73458509675266    0.83423730800566
O          -0.83607838331426    1.47624854224009   -1.20631003065083
H           0.10387631882163    1.24941950638082   -1.40418627314103
H          -1.31365681932951    0.62755814443519   -1.23892760786858
H          -0.62611850536068    1.70885026789855    0.30448723150852
O           0.12116343063854   -2.45196498614907   -1.22913136093712
H           0.78061527714872   -1.90010111446914   -0.73429829791302
H           0.12774650760515   -3.30024080402263   -0.78123434837045
H          -1.20029646749982   -1.55761382795507   -1.05117479655092
N          -0.34199913987266    1.62738666828381    1.34171998865046
H           0.71293302639843    1.41962928947977    1.32306262915118
H          -0.87112751231130    0.82926461789830    1.73639160892310
H          -0.52689768250781    2.48115535871889    1.85650902678434
