    23
        -45.36695724  Gyration_radius:  2.45423036523 Dipole_moment: 5.346
 S          -1.32747420422125   -0.88449664188312   -1.58621432066721
O          -2.13589537895931   -0.46624738413705   -0.45417757590409
O          -1.00654880561553    0.24588951246356   -2.46166397172266
O          -0.15545307769393   -1.63963547717551   -1.21318982748758
O          -2.24469234950636   -1.85853883608643   -2.44580199278891
H          -3.04997811163058   -1.35574826459911   -2.51698606574832
O           0.93797254420518   -0.15608738749531    2.24308575066211
H           0.96525257759433   -0.28473574747737    3.19229286715645
O           2.54032319814023    0.99618847869926    0.34079057467418
H           2.02386154352638    0.52160985279196    1.01909124107269
H           3.21559941225764    1.49092519375403    0.80665872066734
O          -1.10868669703362    1.34138218601563    1.14220847326878
H          -0.46079657566177    0.82917454210496    1.65928787851901
H          -0.29286650589684    1.82048415939503   -0.07666946735953
H          -1.63544196751834    0.66665829901714    0.65090176675211
O           0.28874469601923   -2.45272218621126    1.20003383676649
H           0.00778154760433   -2.16214982432248    0.29395495473225
H           1.00977609365548   -3.06663382490074    1.04685592201090
H           0.67806273559775   -1.03862651725710    1.85308664464445
N           0.31079395686145    1.87935324454878   -0.96847025170973
H          -0.16270016693828    1.21241987004053   -1.66661036722411
H           1.25609894645389    1.54112011438103   -0.71415465989799
H           0.34626658876854    2.82041664831021   -1.34431013041874
