    23
        -45.36695724  Gyration_radius:  2.45414572784 Dipole_moment: 5.348
 S          -0.45540408451630    2.04301536236932    0.82403714305494
O          -0.32192628425280    2.12095139558119   -0.62027698667816
O          -1.78654059298258    1.57054324783843    1.21391067809402
O           0.60115231584526    1.29631284536609    1.46360924770744
O          -0.34671868391639    3.53740069205087    1.35693722030085
H          -0.95573200651329    3.99326748392792    0.78445084728770
O           1.57709200437542   -1.47974439209713   -1.12144171785722
H           2.21848920849887   -1.77508980850715   -1.76924659872643
O          -0.08235482322712   -2.65342390392154    0.71781060932822
H           0.57199562576671   -2.25082540815933    0.11631113928865
H          -0.07856272872503   -3.59425922169641    0.53702815646044
O           2.69858892072699    0.46180816703731    0.20391065704777
H           3.25407540623812    0.20426101972142    0.94237031054091
H           2.01200439731317   -0.72889144716113   -0.62585340046360
H           1.89929882578765    0.87543674210540    0.62144316120290
O          -0.66298078170552   -0.09952692192566   -1.97087533696189
H          -1.56221316523667   -0.56182928272484   -0.80539343834919
H          -0.50667789169630    0.81033823879677   -1.62183150854972
H           0.17143989287494   -0.57765289831964   -1.81421677327750
N          -1.98524722851934   -0.77280589495648    0.16401590511752
H          -2.94306475732612   -1.09926459311740    0.09975684895675
H          -1.94054739814813    0.16201087213394    0.69369109264719
H          -1.37616618066802   -1.48203229433898    0.60985274382432
