    23
        -45.36695728  Gyration_radius:  2.45420948527 Dipole_moment: 5.347
 S          -1.54073969101556   -0.98375358205532   -1.31104469294968
O          -0.58128478911409   -0.97243390917075   -2.41851649118813
O          -1.13280598972525   -1.90531903514941   -0.26495383950168
O          -1.83859908461813    0.34375293137614   -0.82936265955023
O          -2.89376629464760   -1.56770748029684   -1.90877331386791
H          -2.66388336766148   -2.47971440599633   -2.05659292562854
O           0.59911545643468    0.88689710543925    2.18860823533011
H           0.69032571753329    0.92531872758129    3.14176139018187
O           1.71741007366625    2.14788481296835    0.02664588754156
H           2.47137249529267    2.64191360863293    0.35121879199332
H           1.27404320280371    1.76915354737150    0.80894773388280
O           1.18958934588849   -1.47010992769939    0.86976794000257
H           0.30503888964029   -1.77281020147499    0.55343502895844
H           1.60438298168843   -0.79141961684232   -0.45232452313482
H           1.00342785848140   -0.71765566757411    1.46019120659712
O          -1.95573726524611    0.93654215272950    1.68411127815292
H          -0.38320879292651    0.89565058489973    2.00562373990474
H          -2.36133230974655    1.80474675151205    1.63949855759889
H          -1.95746234452038    0.60860876992775    0.74773874047756
N           1.63701692950736   -0.20623780456999   -1.35771091978378
H           1.64015288783928    0.78930936326427   -1.07198555969111
H           0.73033259622632   -0.45497808585136   -1.87966367036696
H           2.44661148425242   -0.42763865902947   -1.92661991493693
