    23
        -45.36695722  Gyration_radius:  2.45412960693 Dipole_moment: 5.342
 S          -0.94920396806268   -1.21563863896383   -1.63705497080896
O           0.21606288632501   -0.95316812129822   -2.48585177690928
O          -0.60929163431849   -2.08292738666456   -0.52250444379996
O          -1.62474160433286   -0.00287478765427   -1.24220848598843
O          -1.97179101127433   -2.03632075662857   -2.53700274230134
H          -1.52783058957394   -2.87430934367095   -2.62218794485666
O          -0.12794054536170    0.88347158364509    2.26688967564885
H          -0.27089020614922    0.89255736275761    3.21440164971813
O           1.16891967236091    2.45135457300803    0.42956400541682
H           0.64695227991500    1.95149325612816    1.08509824892098
H           1.70134836241992    3.07691999249072    0.92253714203470
O           1.23968259665705   -1.23296106985518    1.12968944365512
H           0.53759887601062   -1.69610255708788    0.61325923899810
H           1.79657924985030   -0.42040841731321   -0.05784066370819
H           0.76607851293371   -0.56468309487733    1.65752061431720
O          -2.44663571788119    0.43089868733333    1.17002118063455
H          -1.01984371273442    0.69878494445410    1.85586520885160
H          -3.00460637001489    1.19825710621585    1.02852251501795
H          -2.16097738670967    0.15531395831749    0.26074284942559
N           1.91356801326841    0.20179372476708   -0.93100154271378
H           1.22663099725025   -0.20323442997002   -1.65251059065696
H           2.86111738770067    0.18031487346224   -1.29128108459772
H           1.63921389173496    1.16146854139784   -0.65466752630263
