    23
        -45.36695724  Gyration_radius:  2.4541501505 Dipole_moment: 5.345
 S           2.10743012268359    0.64365560484959    0.45164298885416
O           1.84971526484282    0.79103710745864   -0.97029097276999
O           1.57997263907828    1.77981805518057    1.21196046466814
O           1.67643526033861   -0.62421994250599    0.98990859751932
O           3.68779897395543    0.69851232823446    0.62014482433420
H           3.91133501926680    1.47053552970564    0.10985137663396
O          -1.49568094606222   -1.57793643364966   -1.09891267542665
H          -1.85509486577247   -2.13164070934164   -1.79358493785467
O          -2.38965967703402   -0.50894003275455    1.26190794335714
H          -2.06523719379436   -0.96314104423432    0.46162987835695
H          -3.33798000907166   -0.64257828831610    1.28763647596367
O           0.83358105640841   -2.57063086041773   -0.48762149076098
H          -0.59889779253513   -1.95984178658485   -0.87894187391577
H           1.23165094515283   -1.80113210116129   -0.00414023148794
H           0.83436926493046   -3.28675306793964    0.15065963763057
O          -0.65681085121372    0.98390055207314   -1.71265844423812
H          -0.93248389383096    1.56224352870872   -0.30919046895668
H           0.32276707762352    0.92615646950244   -1.60664616271964
H          -0.97337142645078    0.06494587371978   -1.64343486752426
N          -0.95380356494666    1.75880039344590    0.75111787058186
H          -1.40427548128357    2.64118471440646    0.96694816324342
H           0.07946605247884    1.78051897155678    1.04828663483732
H          -1.45122598474476    0.96550512806261    1.19372726965731
