    23
        -45.36695727  Gyration_radius:  2.45421061394 Dipole_moment: 5.349
 S           1.02293903488762   -1.94356850390830    0.48705487130299
O           2.00587021043601   -0.87488530367242    0.44463873685228
O           0.31877277139491   -1.97263167072287    1.77175583693812
O           0.11630981784967   -1.94101929475907   -0.63584175002898
O           1.84626464350367   -3.30178787422613    0.40710458744884
H           2.51762496300949   -3.16189010435435    1.06753049681368
O          -0.32164994165320    1.83909758585736   -1.56494554411831
H          -0.09515049699989    2.54033157880023   -2.17751871913058
O          -2.50649529033601    1.12969016337365   -0.06916895428052
H          -1.76972689380360    1.35202005541116   -0.66900565112410
H          -3.11659155606276    1.86777552809550   -0.09900350768546
O           1.12338895841144    1.57084159256902    0.77689558791588
H          -0.03326698013599    0.94550054888164    1.58411023649834
H           1.61539358319683    0.72679748343967    0.63672271845230
H           0.71395939927132    1.77130090926433   -0.08425937023974
O           0.41554441389225   -0.39382185348944   -2.68503285159853
H          -0.02567389028736    0.98869563686014   -1.99823356159202
H           0.41471067153549   -0.99586272697415   -1.89644401565680
H          -0.21153416874620   -0.78867379487884   -3.29423164895731
N          -0.83879968608832    0.32200667466741    1.93855922187419
H          -0.44959789613357   -0.67969630579580    1.89976128249315
H          -1.62521884453928    0.44110093884287    1.27512864865752
H          -1.11707279259638    0.55867874668097    2.88442334915803
