    23
        -45.36695720  Gyration_radius:  2.45440808561 Dipole_moment: 5.352
 S          -1.77118899117674   -0.46846220356836    1.30624495449038
O          -2.21132221419741   -0.30006876805318   -0.06775749747965
O          -1.22604604435682   -1.80953504228889    1.53315829490745
O          -0.87847758855666    0.57097208331587    1.75974845877410
O          -3.08091554356514   -0.36979610644533    2.20281079361793
H          -3.67152954135525   -0.96433331576527    1.75101879772612
O           1.16070103155211    1.59913824899240   -1.42476636593680
H           1.28735149386911    2.25527083692598   -2.11159634563282
O           2.74823344626763   -0.10804626943806    0.01719164742194
H           2.21207074102524    0.56202142334372   -0.44714581769754
H           3.61214510162846   -0.10295124751342   -0.39691992604177
O          -0.41027820555941   -0.61541282371234   -1.94599508367822
H          -1.20007886766697   -0.46472552934301   -1.37360315369623
H           0.09960202244834    0.21349054504356   -1.89711733342138
H           0.32467676215716   -1.54405986948956   -0.95690589528329
O          -0.37008965206351    2.69426730510374    0.37557403817545
H           0.07161509328823    3.23112768579150    1.03660816799989
H           0.56439079497690    2.02410316006993   -0.74480390054059
H          -0.67206068734487    1.88683966855776    0.86665555028055
N           0.77117467012939   -1.99094769923750   -0.08279068078167
H           1.06160754286783   -2.94804809326131   -0.24923384280475
H           0.00228255998530   -1.95573190522135    0.66819866230427
H           1.57613606566372   -1.39511206381337    0.18142649730504
