    23
        -45.36695727  Gyration_radius:  2.45406449315 Dipole_moment: 5.344
 S           0.21396647438120   -2.20392811499824    0.39464368218019
O           0.48243337514678   -1.46439923951171    1.61574829832820
O          -1.22528313967533   -2.36722896482120    0.17300342716520
O           0.89084501552090   -1.67320915451888   -0.76430369146676
O           0.79025426563762   -3.66720302498835    0.63080180550824
H           0.42473397459024   -3.88565520319950    1.48233286057714
O           1.05391253476754    2.19128624935489   -0.15383692623809
H           1.60382197200098    2.93650967410747    0.09218954142762
O          -1.05217957340587    1.74113806421121   -1.85016404265896
H          -0.25268865077998    1.90133786360079   -1.31431956271083
H          -1.35943404282686    2.59849669215594   -2.14744079371024
O          -0.49572408771273    0.96204428937012    1.77780426621840
H           0.10658472597249    1.47578313481836    1.20969400321101
H          -1.59008705845589    0.48741022027282    0.79938961910565
H          -0.06306834592556    0.08077344088593    1.87936801115997
O           2.66631474426655    0.20047803679722   -0.62434555013847
H           3.03663939147632    0.15570954895568   -1.50815569584356
H           1.67995143878891    1.43077973678710   -0.32180539349686
H           2.02787659847850   -0.55760132387405   -0.57943550082786
N          -2.13661362074801    0.03450939454572   -0.01271445400177
H          -1.81442836267502   -0.99136321597407   -0.02354385385260
H          -1.84804706721501    0.52389700971931   -0.87871296237548
H          -3.13978056160030    0.09043488630087    0.12380290244214
