    23
        -45.36695727  Gyration_radius:  2.45410408027 Dipole_moment: 5.344
 S          -0.23557966538536    1.11476293869113   -1.93943809125085
O          -0.31652265742807    2.37062501879756   -1.18882824816556
O           1.09608791662933    0.53895942694188   -1.86838211591354
O          -1.28540322545862    0.19203559898489   -1.57977006214254
O          -0.46750505619884    1.49942637590358   -3.46497642332159
H           0.33478529954532    1.96841267871634   -3.67203864141940
O           0.30787773688235   -2.12882068135275    1.14407819827293
H           0.67444536099383   -2.99243796131458    1.33921507146444
O          -1.17784104299597   -0.24668514894875    2.47271303274689
H          -1.19777535776241   -0.50640450945869    3.39464827444113
H          -0.71981589761215   -0.96106886965480    1.99115002029912
O          -0.86685258200457   -2.32609158759626   -1.17228504949145
H          -0.94872099726413   -1.36664439826827   -1.41119624718173
H          -0.13081726939768   -2.21165691211502    0.25010456469394
H          -1.76863689128204   -2.65304622295739   -1.16264049651796
O           2.01615673694560   -0.04818879808775    0.51489865227822
H           1.08704206695538    1.06315200951232    1.04637316775600
H           1.53638995357345   -0.86718267355134    0.73524753347961
H           1.82610488424051    0.11095148650873   -0.44043353169598
N           0.25618847780836    1.72375552226228    1.23738932262369
H           0.52325720820121    2.51845208549776    1.80771084143492
H          -0.47660823102216    1.15813974946650    1.70186728379257
H          -0.06625673794846    2.04955488201560    0.26459294382003
