    23
        -45.36695725  Gyration_radius:  2.45402613057 Dipole_moment: 5.345
 S          -1.44918197020136    1.47260388083410    0.88891172428754
O          -0.70865678792918    1.41448843481139    2.15201479621907
O          -0.67314075561292    2.12422508732052   -0.15184164611697
O          -1.97315503016137    0.18527245914663    0.50016215506446
O          -2.70230761204916    2.41408616901502    1.15789949668814
H          -2.28939286353803    3.26708659066293    1.24923560438348
O           0.71093258241177   -1.30165388907584   -1.93306887082935
H           0.94128764875832   -1.49513274697462   -2.84289121036548
O           1.13594794821685   -2.44960572561834    0.52004928966872
H           0.92692659373925   -2.10067442677240   -0.36681921006033
H           1.78884310950468   -3.13970876010209    0.39635993828119
O           1.62820369811956    1.03684385803576   -0.77820724117838
H           1.65385897936401    0.48209409268603    0.66113090997551
H           1.36432659118924    0.26543984823517   -1.31182059910161
H           0.80273431952701    1.56632272157353   -0.66695110919350
O          -1.82865826627993   -0.72336842978227   -1.91560984952892
H          -1.90053791266296   -0.27153153369696   -1.03527035889310
H          -0.26134916585943   -1.07106755904264   -1.93831883303437
H          -2.43120806497247   -1.46759216071899   -1.85795039097010
N           1.40190547294064    0.04061922571825    1.61242915726102
H           0.50985836249074    0.55262397228568    1.92622735608138
H           2.14020205231249    0.16109044600611    2.29690501346563
H           1.21256107067655   -0.96246152455067    1.43742388791399
