    23
        -45.36695728  Gyration_radius:  2.4540678403 Dipole_moment: 5.343
 S          -1.68703221031707    1.28181187802323    0.75491605323543
O          -0.97262165668466    2.47126342035164    0.28387974671822
O          -2.15366363329476    0.46893124492464   -0.35475570598929
O          -0.93234813953484    0.54184380452070    1.73774842176538
O          -2.99307066552303    1.81607931310977    1.48828971619196
H          -3.50610378544029    2.14563384819851    0.75703975441017
O           0.93366576567166   -2.22943808690844   -0.30638131587055
H           0.96902010233334   -3.15756638841144   -0.54213810195578
O           2.73836476666218   -0.21305138470679    0.13204678927674
H           3.59159855239741   -0.53307844396474   -0.16363524524452
H           2.11657515164964   -0.96066544904945    0.05180761028103
O          -0.33655927523794   -0.45431976169583   -2.00297757915001
H           0.06110938310635   -1.18609436725365   -1.49714571570508
H          -1.13625256994227   -0.19159269775564   -1.48757852980268
H           0.51802927209338    0.76494227760901   -1.59779321786166
O          -0.71571766346760   -2.03377216328892    1.69987253334698
H          -0.90589623365857   -1.06026675369920    1.67781792250989
H           0.29121306745350   -2.16330786179513    0.45615013797800
H          -0.34379302238485   -2.19009118306978    2.57019091539162
N           1.02327924800157    1.54989813641250   -1.05772334238095
H           0.26001526899579    2.00157710937209   -0.44943465386566
H           1.43523946673611    2.23705123669457   -1.67919570242358
H           1.74494881037347    1.09421227239328   -0.47100049085306
