    23
        -45.36695720  Gyration_radius:  2.45427293514 Dipole_moment: 5.347
 S          -1.14036028566091   -1.49634630552056   -1.23322828171742
O          -0.23481403714732   -1.23584090676860   -2.35544763310696
O          -0.45806180456427   -2.18005257936871   -0.14834082572919
O          -1.85089108916903   -0.31175681706355   -0.81489696159583
O          -2.23221076327275   -2.51611231559904   -1.77827370580193
H          -1.72035143615660   -3.31206092568584   -1.88287685515733
O           0.27933651620657    1.14906119623893    2.12988886198745
H           0.35290852688226    1.26575852878536    3.07816901970937
O           0.93363235615174    2.58457582075745   -0.11212778294105
H           1.48509573060796    3.31379505377601    0.17416789951847
H           0.63547679190459    2.12595526983523    0.69581254777936
O           1.59912714516575   -0.95997559520955    0.92405696895734
H           1.17985671096517   -0.27683049416597    1.47808023622143
H           0.85957854556276   -1.54779116244462    0.63826032631079
H           1.77448398618814   -0.25596831427945   -0.43768759103152
O          -2.15467180763749    0.34581237345416    1.66667534073364
H          -0.65326682615496    0.83113979955647    1.96324623284619
H          -2.81873740261663    1.03319554862202    1.58443652570800
H          -2.04991056362594   -0.01518166133405    0.74854570380988
N           1.61777505109951    0.25894110875959   -1.37231693417350
H           1.30010954820978    1.21648145664734   -1.13806803923795
H           0.83985673664300   -0.29594718704490   -1.86565526172691
H           2.45603835042239    0.27914811804754   -1.94241978140820
