    23
        -45.36695726  Gyration_radius:  2.45421348625 Dipole_moment: 5.350
 S           1.66093966999968    1.32302739385157    0.74329329952064
O           1.83220520202354    0.43202355298756    1.89391147777086
O           2.06942784588890    0.67830930642536   -0.49258076334810
O           0.33845288490348    1.89813783529049    0.68659765729611
O           2.67451699095061    2.52791543467660    0.96660356942480
H           3.51570749010651    2.10193445139687    0.83492825975896
O          -1.67962414519194   -0.46099561595363   -1.70323775700972
H          -2.05744298040075   -0.57583622573926   -2.57637748147857
O          -2.32941694844555   -1.18210749016835    0.86016821431558
H          -3.04681553730701   -1.81414874237758    0.79905115784140
H          -2.15773664374460   -0.86599420497226   -0.04684948046680
O          -1.03653142233405    2.05434538153522   -1.49682337698578
H          -1.42662402498273    0.50354573087147   -1.63750871207999
H          -1.73690240525948    2.64820101694980   -1.21916880671200
H          -0.41662842021368    2.01581204979506   -0.72315463104280
O           0.81435142882228   -1.52381083457043   -1.16100739811330
H          -0.03979435077680   -1.19281713997827   -1.49317719613591
H           1.37869063395217   -0.72049965309014   -1.05954735897061
H           0.55597677176246   -1.72499910626417    0.34689787391109
N           0.31935040228077   -1.59061332335460    1.39047925848743
H           0.90847792095541   -0.74600830712105    1.70022994865861
H           0.55222271441569   -2.40811347553425    1.94326030023638
H          -0.69280307740560   -1.37730805470315    1.44401195511513
