    23
        -45.36695709  Gyration_radius:  2.45439947728 Dipole_moment: 5.350
 S          -0.18360698049832   -2.14926793308264   -0.63938669604458
O           0.25989083284942   -2.09051948380485    0.74254255539464
O          -1.63483685671394   -1.97597130565401   -0.74371628703909
O           0.53945841257986   -1.26149074336628   -1.51801766604361
O           0.11818974108261   -3.62987221577386   -1.13534048527908
H          -0.24963990089166   -4.15046555665802   -0.42806558681972
O           1.43527374242416    1.83884180468834    0.70344663794482
H           2.12226778396335    2.30034704381573    1.18649216975805
O          -0.77629648811355    2.52481698141392   -0.76440565960697
H           0.05707501394363    2.30419765108424   -0.30749112160608
H          -0.92733063213877    3.46018273466788   -0.62276926541544
O          -0.24595826847124    0.11636501118423    2.06374575831002
H           0.01933720719898   -0.76915770120674    1.71797979522109
H           0.42058718027025    0.73484340353952    1.71352626927473
H          -1.44341285808923    0.30518436086557    1.10922494028841
O           2.63308617349579    0.06122123685973   -0.77629321006659
H           1.90325152215664    1.15292592965991    0.14752559029785
H           1.86800226589005   -0.53137029537609   -0.99505477957085
H           2.95616840764237    0.36644355484575   -1.62638541441274
N          -2.09271090504385    0.35560735381120    0.24952458901930
H          -1.96607630563968   -0.58970180774405   -0.24737018132704
H          -1.74992373564380    1.13448905318855   -0.34068701833534
H          -3.06279533223969    0.49235093302860    0.51097505607488
