    23
        -45.36695727  Gyration_radius:  2.45406034707 Dipole_moment: 5.345
 S          -0.27666626130537   -1.25798564872968   -1.84394407638371
O          -1.57443845559408   -0.84368044036707   -1.33986355212095
O           0.35113759194216   -0.20005123618405   -2.64005581108797
O           0.60400065544030   -1.77201982190013   -0.82257447634464
O          -0.55792143049747   -2.45640804559913   -2.85076953825014
H          -1.25384460062110   -2.09711748468967   -3.39209293787116
O          -0.30788064574241    0.25269283229494    2.40347992595623
H          -0.75190499128227    0.24053440290022    3.25259471656659
O           1.93901741168749    1.41254048157116    1.34454028380463
H           2.24713119752857    2.05761681247491    1.98235162416494
H           1.19027806344603    0.94477578459358    1.75999634756667
O          -0.16542710453980   -2.22197440519272    1.60384130569256
H          -0.26749364347776   -0.69869343651049    2.10045913543637
H           0.02629343732468   -2.08529740964866    0.64003328675778
H           0.57955116853155   -2.72996942571212    1.93127001521289
O          -1.63284401170726    1.27474496359396    0.20290139677337
H          -1.29523212840479    0.93326960800331    1.05079336876037
H          -0.35489933836213    1.73108728570657   -0.53125884819926
H          -1.78701718157509    0.47381922449982   -0.35283786158875
N           0.60863272332949    1.78010572844386   -1.01342001399247
H           0.60370713716392    0.97149493653611   -1.72229641452273
H           1.32096373058136    1.62500214651002   -0.27773168562644
H           0.75485666616182    2.66551313739882   -1.48541618069564
