    23
        -45.37061408  Gyration_radius:  2.45294778114 Dipole_moment: 4.897
 S           1.45766204825114   -0.64795242535972    1.70368181842609
O           1.88662884362322   -0.12096951024820    0.39712198986342
O           1.38336402367236    0.37471573567143    2.72321057689160
O           0.27143000003824   -1.45807109503271    1.55883601996106
O           2.63123146835092   -1.62353662976159    2.17282069828205
H           3.06985575604577   -1.09901226308165    2.83550858079241
O          -1.97792077221582    1.22891500252186   -0.14530018917330
H          -2.66490870221509    1.80832469679753    0.18728762632412
O          -0.88291530000224    1.14592842767709   -2.62741130069510
H          -1.31799035029537    1.28979366808285   -1.76077240924225
H          -1.58602936449131    1.04246115526127   -3.27023575654685
O           0.25277283654748    1.97583993986098    0.98677703216918
H           0.52999574598967    1.52302640842377    1.81050413505070
H           0.95087482746795    1.72600245392733    0.36943423852904
H          -1.14604257543570    1.49409448112296    0.33821341958603
O          -1.71528890130170   -1.53953330964996   -0.15573994428565
H          -0.45984501031437   -1.35204850255707   -1.07496073684151
H          -1.14281764008866   -1.66637536371091    0.62975946405506
H          -2.03333924737978   -0.62381190750856   -0.08362957743420
N           0.42067702069170   -0.97895175611708   -1.56173462032550
H           1.07590586787790   -0.65207991048352   -0.77654457913842
H           0.12268794090083   -0.15977759899010   -2.12941471736582
H           0.87401148428514   -1.68698172684288   -2.12741176887601
