    23
        -45.37061372  Gyration_radius:  2.4530501473 Dipole_moment: 4.908
 S          -2.04361562564312   -1.03827247340051   -0.43978715654074
O          -2.87795502553128   -0.81489703057531    0.72000543588938
O          -1.59575342544135    0.21530805992247   -1.06964604871183
O          -0.92655648840569   -1.92830947237234   -0.23066129518268
O          -2.99674273699927   -1.73515502213140   -1.51449393937969
H          -3.86065726737618   -1.55627913967322   -1.15633775617842
O           1.26345124960995    0.48959438664274    1.89886686127341
H           1.41625654369223    0.56776188895327    2.84164930713638
O           2.14089116298518    2.09856534373007   -0.10345362503775
H           1.84896717734887    1.61271637826004    0.69630375448019
H           3.09451807323482    2.17169088125541   -0.04397527477969
O           1.65641068420346   -1.60739592825020    0.11532658789272
H           0.75031685843020   -1.97906963222579    0.07598607199852
H           1.32350362057981   -0.60072303334372   -1.03926323988544
H           1.64712934501947   -1.01652076058314    0.88712120082140
O          -1.24607957921553    1.08228037312566    1.48951839103308
H          -1.28716308392076    1.42653289312329    0.58927841193939
H          -1.89754607293013    0.35040594832857    1.46411325389221
H           0.28980631672779    0.66608554642581    1.76932456964309
N           0.93587396075096    0.20805968802687   -1.62822917690159
H           1.35681730409406    1.08074574817972   -1.24970021770826
H          -0.12402690821780    0.21675100342328   -1.45660291662686
H           1.13215389700448    0.09012435315996   -2.61534320906561
