    23
        -45.37061375  Gyration_radius:  2.45310381688 Dipole_moment: 4.903
 S           0.33137548749275   -2.19638096409771   -0.71683386030955
O           0.89107517452318   -2.91567034879311    0.40580609491932
O          -0.98580503786693   -1.60933688939595   -0.41805205526880
O           1.20286879580985   -1.21111880017599   -1.31125377139845
O           0.05740364528520   -3.30588783033102   -1.83181119960286
H           0.10756288085002   -4.11030781503514   -1.32477936114940
O           1.00074423868706    1.43429696767887    1.54320925702089
H           1.58697075884432    1.65416042531138    2.26866192191281
O          -1.47089897002755    2.41604252854851    1.00027019864877
H          -1.41855198487702    3.37175758834236    0.95350365581026
H          -0.59528684365525    2.10476465778685    1.31222080780588
O           1.37488378070419    1.40713927368845   -1.21237107443532
H           1.56099062123979    0.45579421775129   -1.35731907189712
H          -0.16600735062872    1.15533280838777   -1.35252924949603
H           1.45755750562852    1.53079300950084   -0.25175526332265
O           0.11824559011903   -0.98142219483393    1.99203960233092
H          -0.74316197699421   -1.02675930921206    1.56012827813514
H           0.59739859522986   -1.73270110568618    1.58376383182719
H           0.71704703715487    0.49104827537929    1.70394558991170
N          -1.18444026790740    0.85508307634279   -1.19787547646156
H          -1.14729725860990   -0.17966099932414   -0.91344863020235
H          -1.74792172296494    0.97117621394882   -2.03204892129244
H          -1.54475269803924    1.42185724421538   -0.40347131349263
