    23
        -45.37705561  Gyration_radius:  2.29121004529 Dipole_moment: 4.749
 S          -1.38567953470187   -0.89218674112812   -0.52981077855334
O          -1.34719836438572   -0.00400136049292    0.63085698738364
O          -0.72374246660228   -0.25913324568189   -1.67712123097320
O          -0.87747396825767   -2.20777443504253   -0.27024593928712
O          -2.91899423455619   -1.00566402812670   -0.90199592021382
H          -3.28264997384870   -0.21465064705403   -0.51638787357484
O           0.25250936297400   -0.60139849300401    2.72493520082963
H          -0.46296766912054   -0.48066302172960    2.07278535722117
O          -0.58420458739415    2.40503078250461   -1.72689177858391
H          -0.70341820893666    1.43294859812465   -1.75774028056904
H          -0.83581379905218    2.73526432139747   -2.58985340747301
O           1.50116687772299   -2.15520357619144    0.92919777590301
H           1.76315500698267   -0.95573079887965    0.01971315943990
H           1.20409697076258   -1.74796207589223    1.76997642840514
H           0.66989049827050   -2.45530315543519    0.50901485458179
O           0.54870290199835    1.88304302880042    0.70325191273389
H           0.28455185107867    2.47034917083742   -0.01968814645652
H          -0.22451965207946    1.28946330311771    0.80631045634550
H           0.59248471367791    0.27824898270028    2.90469925846677
N           1.69316459858856   -0.08878806690145   -0.62695462491361
H           2.53084406553675    0.04151624359905   -1.18371468641675
H           1.46152946038898    0.76737859776342   -0.04312639601135
H           0.84456615095532   -0.23478338328187   -1.22721030829195
