    23
        -45.37061389  Gyration_radius:  2.45302492409 Dipole_moment: 4.906
 S          -0.40112281654814   -1.73848796268649   -1.50506182055716
O           0.29392552870139   -0.48609238166789   -1.84731398028519
O           0.50881124258678   -2.80683002225605   -1.15638235448312
O          -1.45206364813576   -1.48972230081308   -0.54707959107378
O          -1.10802826574629   -2.21335714429880   -2.85559325767298
H          -0.53815326732247   -2.92252556697491   -3.13669501275045
O           0.74249868032294    0.17904358723487    2.20496301222681
H           1.12295864975839   -0.14992517714132    3.02064010860671
O           1.07835981803054    2.60266511546042    1.02980706282755
H           1.06055006312301    1.75316205955559    1.51858519728623
H           0.85612636999357    3.28570299512548    1.66411422273006
O          -1.88221907419090    0.32690033933834    1.29876731032243
H          -1.92297886457787   -0.47893362406496    0.74214448757767
H          -1.07216577828332    0.22175228526091    1.82569838979957
H          -1.34875305429289    1.16901890323983    0.08925579121229
O           1.91128526220662   -1.10473129910222    0.25497105380688
H           1.48262001426589   -1.91505416044353   -0.09161186354625
H           1.87327206399055   -0.51042957024278   -0.50403929568380
H           1.16110502834532   -0.36020090201737    1.47702261746474
N          -0.75049554856572    1.58905365178315   -0.69623295771513
H          -1.29541459885077    2.16907155796488   -1.32348097103686
H          -0.33253694630930    0.75463028259769   -1.22717720923650
H           0.01241914149696    2.12528932413932   -0.23530095983057
