    23
        -45.37061360  Gyration_radius:  2.45315816849 Dipole_moment: 4.904
 S          -0.86380534330270   -1.69177158176405   -1.35658088643890
O          -1.06423019402835   -0.25216429111132   -1.59386370256815
O           0.25266895650794   -2.23106352564602   -2.10069154020449
O          -0.85364331313766   -1.97607987402248    0.05853996111221
O          -2.15685690125463   -2.40516222932746   -1.96349375523413
H          -1.82010943280611   -2.75834875373187   -2.78116913054006
O           2.03964958192985    0.44523099654838    1.03869763225860
H           2.97193952571006    0.30792183789662    1.21264099239227
O           0.66330797828186    2.78089223849810    0.91094961061862
H           0.80353749295066    3.26484976964211    1.72610915457272
H           1.26342848849252    2.00633436895478    0.94102470171908
O           1.65410729218270   -0.10760402748497   -1.48326965275423
H           1.37023082097612   -1.01566047701609   -1.71903584784639
H           0.89427178286967    0.42258273415606   -1.75185347497174
H           1.90216055412000    0.17802273580558    0.08690408396093
O          -0.24957101800698   -0.60630900762917    2.21593997958299
H          -0.45914976981352   -1.32756841455328    1.58627353337142
H           0.65921246707032   -0.34175043164309    1.99435046993329
H          -1.07728598733621    0.41598857430783    1.36288399080023
N          -1.42696332960610    1.08305458592942    0.59875497421867
H          -1.33254550194988    0.54709608420402   -0.32675183102775
H          -0.78088110007376    1.89845136275177    0.59650181286388
H          -2.38947305976912    1.36305730522213    0.74713892418570
