    23
        -45.37061398  Gyration_radius:  2.45298145454 Dipole_moment: 4.902
 S           0.85177676273721    0.01202512660909   -2.17301817891856
O           1.72345429494225    1.16194441296231   -2.26792526668328
O           1.26653096981664   -0.93268342492398   -1.12214845739118
O          -0.55466593501802    0.31564080932978   -2.05576873856881
O           1.04338825351129   -0.77428498349092   -3.54924601899408
H           1.84179630213827   -0.38248228414258   -3.88944283132430
O          -0.49370990167461    1.60261347902299    1.62191101952518
H          -0.48376255883425    2.48199289021221    2.00261463520483
O          -0.28626931863274   -0.79464258577644    2.87792449357404
H          -0.31275707952284    0.12058534315794    2.52784995487138
H          -0.95945103219903   -0.84486764185668    3.55806352308256
O           1.76466197212751    1.30679125588669    0.34598224180376
H           1.94279768228512    0.35863047389838    0.35307229471201
H           1.78772339218055    1.51708725045191   -0.61101185315547
H           0.35065124408583    1.52878315527411    1.09507442820664
O          -2.28521446212720    0.32871040106594   -0.08138705352963
H          -1.83592391096977    0.93841059609669    0.52791755164230
H          -1.83761441146892    0.46374568965140   -0.94291450910293
H          -1.47791786350396   -0.99217083660930    0.16297956181020
N          -0.70973588930402   -1.71428368270755    0.36283003018870
H           0.11627299083542   -1.44911937626821   -0.26986675043944
H          -1.01433974911590   -2.66071540630365    0.16715111275844
H          -0.43769175228870   -1.59171066154298    1.35935883072960
