    23
        -45.37061366  Gyration_radius:  2.453003391 Dipole_moment: 4.892
 S           0.35438683336177    1.35057901025397    1.86963816027673
O          -0.17308236384268   -0.02331986339168    1.92398726777264
O           1.78584697405718    1.40828578354166    2.06605313573992
O          -0.13267692801192    2.03446340767112    0.69534946368247
O          -0.27330226659393    2.09609021845160    3.13430461000525
H           0.46443676200068    2.11544910535844    3.73603071140637
O           1.17595579962997   -0.52023745463105   -1.94356985968113
H           1.94437734110203   -0.52849509722765   -2.51604779572892
O          -0.68931192336409   -2.45721457620893   -1.57805539792646
H          -1.05857487683220   -2.69101161031395   -2.43092088199071
H           0.05743722184651   -1.84767571227085   -1.75686235143698
O           2.06029570318046   -0.67682165170426    0.50725428249710
H           1.35303406877933   -1.09677965022570    1.01122100788766
H           1.53512751880037   -0.52682420810257   -1.01224114506478
H           2.20114568792787    0.15902174476119    0.99953377823623
O          -0.93290274352910    1.27361694696605   -1.68715159063532
H          -1.61380556184364    0.23482437255346   -0.73049154894219
H          -0.62606502932441    1.80289177845652   -0.92147693463346
H          -0.14815407773856    0.77669161683309   -1.97392593866897
N          -1.80956671534234   -0.54374913692692   -0.01863462687616
H          -2.78177954939005   -0.56569114894535    0.26623031935346
H          -1.17799867899900   -0.33803863079534    0.82479130990207
H          -1.51482318587283   -1.43605522410644   -0.46501597518136
