    23
        -45.37061377  Gyration_radius:  2.45305941204 Dipole_moment: 4.897
 S           0.41082380737831   -1.63588955626809    1.61311787825770
O           0.24659964581284   -0.20199476654319    1.90617178835272
O          -0.81851616998694   -2.38220646810528    1.76391325376585
O           1.09154675942822   -1.82111493634499    0.35366069719294
O           1.38221444846967   -2.19229428750453    2.75159477975375
H           0.77251125416768   -2.64856467470609    3.32323890778816
O          -1.38586138832081    0.21276289838841   -1.86291863617664
H          -2.10073024121285   -0.04734158007525   -2.44568575467389
O          -0.61275527687045    2.70961411948345   -1.13314077561040
H          -0.44125065270784    3.22087716143436   -1.92534280022178
H          -1.00078761802314    1.85966377302335   -1.42994128059397
O          -2.10711340519762   -0.44882976992010    0.55710991386666
H          -1.65576422317511   -0.09591286173298   -0.95286441579821
H          -1.81989484358407   -1.31977142783832    0.90302663250538
H          -1.64842004365026    0.16686956442892    1.14120178309550
O           1.32424437625866   -0.41006210127750   -1.84858862606974
H           1.49739276306982    0.66095062535171   -0.71696092792328
H           1.33706729783904   -1.13441898893260   -1.18837102539821
H           0.38484734705312   -0.29636003838286   -2.07140027454129
N           1.34859778649803    1.31816813730174    0.11804211909885
H           0.93068103012849    0.71241322719088    0.89967127327248
H           0.65060282349179    2.02843467613814   -0.18305265301104
H           2.21396453312883    1.74500728489403    0.42751814306536
