    23
        -45.37061382  Gyration_radius:  2.45303696876 Dipole_moment: 4.906
 S           1.52656446702254   -1.67461186293207   -0.55977875436837
O           0.75758751848638   -2.88284561180295   -0.75978164655486
O           1.12005349406969   -0.58441713374320   -1.46253091648748
O           1.59108899757647   -1.20642509139581    0.80424293984963
O           3.01699844922182   -2.04944475030930   -0.99255543619809
H           2.88345806767349   -2.85878618762503   -1.47618849529429
O          -2.07107761009428    0.09922335916193    1.06915942653201
H          -2.86679288106268   -0.27230323450938    1.45271902818939
O          -1.78282337609868    2.38397137083451   -0.36796850014904
H          -2.00858788493226    1.56677271064223    0.12406079174634
H          -2.13951376035298    3.11410503536920    0.13996793475555
O           0.41284086723975    0.70848083812913    2.16013853965507
H           0.76732910529372    1.40187100185969    0.79978340890089
H          -0.51725117692287    0.46845740612870    2.01096389337612
H           0.91994106760077   -0.09056531633819    1.90494598636048
O          -1.41529211381462   -1.43344127648963   -0.94005733379318
H          -0.77467989329920   -2.15798688075365   -0.78092019829009
H          -1.80665828007685   -0.52842851130273    0.33974449297841
H          -0.93517478328128   -0.86429402726740   -1.55343641440555
N           0.83215282884769    1.68056278695437   -0.23432287316257
H           1.58705538099554    2.33396716456084   -0.40753846762312
H          -0.09331214380129    2.07798478072674   -0.49451236261427
H           0.99609367971190    0.76815341009186   -0.77613505340086
