    23
        -45.37061404  Gyration_radius:  2.45292580108 Dipole_moment: 4.899
 S          -0.24489511460777   -0.74729356792237    2.19738014603325
O          -0.78359438803449   -2.08696864978504    2.12029079697653
O           1.04708142437431   -0.61123960652078    1.50383135044397
O          -1.14993809999598    0.30275398992614    1.79402900485822
O           0.07760275817228   -0.51325384654572    3.74345700249265
H           0.04678123315691   -1.40073433813197    4.08718300610052
O          -1.06254388587838   -0.39411967602693   -2.03880048845785
H          -1.66121560752050   -0.85345567241936   -2.62948292727721
O           1.37547037380071    0.66925068865765   -2.58006565461898
H           1.29012787763405    1.27446361857462   -3.31810415638552
H           0.50962650787550    0.21876583785336   -2.48874134482988
O          -1.41834688582519    1.78880352859247   -0.35375174745539
H           0.13123416839063    1.77872308260128   -0.12022780686725
H          -1.51090391616351    1.09254084180320   -1.02577806944035
H          -1.56774043642154    1.33137181809766    0.50022737516317
O          -0.09436218107588   -2.18418244216997   -0.40379312641025
H          -0.54356114467023   -2.31744365118653    0.45703516518462
H          -0.74543234171191   -1.08271479689096   -1.38961509167990
H           0.76923390046192   -1.84779503732950   -0.13569698342646
N           1.15941336820616    1.49343766889995   -0.00621540222603
H           1.15904726086486    0.64558374394120    0.65242209122897
H           1.72293157367274    2.24098892038936    0.38163787280397
H           1.49398356530880    1.20251753561595   -0.94722098218835
