    23
        -45.37061373  Gyration_radius:  2.45309684671 Dipole_moment: 4.903
 S           0.18814082211924    1.57546866990876   -1.71183955902788
O           1.59387612213720    1.89520931963183   -1.82432924926217
O          -0.08992773163701    0.14517099762765   -1.92571106712095
O          -0.45340676256788    2.04205238517843   -0.50589292529940
O          -0.51323598743684    2.33017627752486   -2.93172284310865
H           0.23135240656181    2.53849785050685   -3.48749483469912
O           1.16926098220776   -0.50833195783741    1.95341840533694
H           1.90417383839623   -0.44476124354496    2.56510192870756
O          -0.30805539046952   -2.68822454131761    1.29560860778058
H           0.31092755224169   -1.98152692600963    1.57554949916654
H          -0.66278274491269   -3.07224184735566    2.09874237634473
O          -1.20972893564152    0.91625108663444    1.74250714738543
H          -1.65762203651611   -0.12035741072382    0.65513900467739
H          -0.36298326208341    0.53376063860424    2.02825373885391
H          -0.96774766805923    1.56502933280949    1.04881042542287
O           2.16286387761488   -0.25813901935780   -0.44789556659734
H           1.56014478002525   -0.35667582785616    1.04776918926876
H           1.56096198262397   -0.73877394831503   -1.02869600139221
H           2.17672845003205    0.63446576661644   -0.85250492356478
N          -1.68482259479564   -0.84371771116310   -0.13685433357887
H          -1.06634917099595   -0.44749015552304   -0.91997627266960
H          -2.62598214125872   -1.00228746922304   -0.47733063340919
H          -1.25578635758281   -1.71355426682159    0.23934790677893
