    23
        -45.37705758  Gyration_radius:  2.29121161621 Dipole_moment: 4.623
 S          -1.63065643965080    0.58301597338112    0.05868799672710
O          -0.74630438279930    1.61481817668883   -0.49472512230099
O          -1.22968003325834   -0.74064019392559   -0.41602062610331
O          -1.74192294352714    0.67585671592494    1.48584625226709
O          -3.05803300896550    0.82270674976891   -0.58078824728041
H          -3.07885202492454    0.17506320388045   -1.27829449045076
O          -0.05976704806200   -2.47298238626687    1.29812563319893
H          -0.64756477677909   -1.93929417873571    0.73130116338840
O           0.55698239328458    1.08063489780454   -2.76277938238792
H           0.44697278997044    1.79484841117076   -3.39108037020105
H           0.01989514518701    1.31767074377888   -1.97853423097268
O           1.29892046037978   -1.05728881458167   -1.23596808709527
H           0.34263342991771   -1.09337208185886   -1.02368024758184
H           1.33020371903144   -0.51418838270922   -2.03683037253802
H           0.62741418876114   -2.80856127369931    0.71764024678383
O           0.41140352196594   -0.26140773327121    2.74256038565031
H           0.31128853634990   -1.19719371795980    2.46851011896015
H           1.17701775739710    0.37283558831744    1.58256560582865
H          -0.46312721417359    0.13261053457248    2.54817005895311
N           1.49559224785176    0.79395643371576    0.63595858151767
H           2.31424983911338    1.38435169479546    0.73537229331350
H           0.67459398062606    1.32676094806727    0.25732895632186
H           1.64873987230961    0.00979870113710   -0.06336613599918
