    23
        -45.37061378  Gyration_radius:  2.45306537669 Dipole_moment: 4.901
 S          -2.31892458883143   -0.23338421369157    0.12664756416260
O          -1.37048882386723   -0.82111649848448    1.08790622122464
O          -2.83786087436109    1.04402892527151    0.56237282303913
O          -1.76530306233945   -0.24912861000248   -1.20634484627448
O          -3.57682757819817   -1.21667263947926    0.11803947934734
H          -4.20982009680101   -0.72986648935649    0.63671945789860
O           1.49427457499463    1.73958806072565   -0.42609506802669
H           1.74380205709184    2.65571415993975   -0.55541379700985
O           2.87612902256167   -0.23663114818041    0.81970864963737
H           2.45154610101711    0.55662608013410    0.43060776681412
H           3.74418769480289   -0.30400030820922    0.41939282553532
O          -0.43110975014998    1.72392207681114    1.33661681686344
H           0.72360677547595    1.75827277450436    0.20789275241062
H          -1.35608047131717    1.73284094838711    1.01240778365080
H          -0.37412583906965    0.86614504518059    1.77435581249769
O           0.66520818966162   -0.23448262838340   -2.20042692188242
H           1.00865357522472    0.57396430710057   -1.78397383913760
H           0.77068877051462   -1.25321870983393   -1.01364985945193
H          -0.30683390235201   -0.17794364587387   -2.08818405470985
N           0.77942648160109   -1.72041492320136   -0.04776966891333
H          -0.12314269602384   -1.40498153622960    0.44100507449427
H           1.60257270396228   -1.33805860640417    0.46057208883895
H           0.81042172641083   -2.73120242072534   -0.11238706100423
