    23
        -45.37061377  Gyration_radius:  2.45303980212 Dipole_moment: 4.894
 S          -1.71744761741344   -1.56515478971491    0.21630966609682
O          -0.70659661499626   -1.29142361813882    1.25169233090124
O          -2.93640603785398   -0.81210594149125    0.41155200004079
O          -1.13525922708957   -1.46102389529021   -1.10055137584992
O          -2.13076956027107   -3.09370319567635    0.42122355863779
H          -2.97602249014897   -3.01176319413903    0.85192528578925
O           0.18986017078926    2.19023088960140   -0.77542826553424
H          -0.14622026876224    3.03403558406920   -1.08088733451790
O           2.35167624018961    1.68921975669967    0.78677896856462
H           1.57621302495067    1.98723406441777    0.26621977718657
H           3.12092158507194    2.09419565779926    0.38345568238824
O           0.88491443807563   -0.13650341508648   -2.12990359644579
H           0.06725506166035   -0.66362192837138   -2.01082603528802
H           0.63352551007303    0.76848463805904   -1.87939789830333
H           1.46158156518146   -0.67476917254606   -0.77516974740496
O          -1.50588705566757    1.30054748238295    0.99852766234844
H          -0.49659942718627    1.84202133962555   -0.13992283716507
H          -2.21461049580501    0.69480698036056    0.69602921235547
H          -0.99094594285222    0.73749031427352    1.58883961824495
N           1.65334150651683   -0.87668372053869    0.26106417331720
H           2.28800305409012   -1.65646591484484    0.38747692160268
H           0.69890431754180   -1.09718489138126    0.70036462880538
H           2.03056827390524    0.00213695993077    0.67062760424502
