    23
        -45.37061419  Gyration_radius:  2.45289944612 Dipole_moment: 4.891
 S          -0.74620776734974   -1.53081725823408   -1.59565273768401
O          -0.27399529595306   -0.17033430596692   -1.90375777816758
O           0.29200154232234   -2.52828470722318   -1.72967516139659
O          -1.45584074103864   -1.54820331486364   -0.33846600940270
O          -1.81076383710452   -1.87740695687980   -2.73406920269598
H          -1.31730419822140   -2.47280024024524   -3.28971723490212
O           1.38955543820363   -0.06505761737820    1.87207287599278
H           2.02848600329375   -0.46495460079146    2.46376825967600
O           1.18144447933959    2.52876241797915    1.09960165896591
H           1.37320335639152    1.61953394598463    1.41191388369646
H           1.12920292361130    3.07920541263420    1.88228706227250
O           1.96076825980912   -0.90291584116369   -0.53335959870311
H           1.59033978366769   -0.43844832082718    0.96841987845963
H           1.49757246737532   -1.69832858995986   -0.86962059562103
H           1.64275126632372   -0.21291812852975   -1.12810846901812
O          -1.39054751302872   -0.08723156425138    1.84190840676212
H          -1.55523076009749   -0.80086345918804    1.19038711064648
H          -0.45013380225467   -0.17568885879927    2.07170262125176
H          -1.32235133924638    0.98045218017170    0.69709619560499
N          -1.03153043562743    1.57828959751656   -0.14534766635317
H          -0.75069329488758    0.88537034578345   -0.91567585013681
H          -0.19785867543498    2.12521572196382    0.15110678182197
H          -1.78286784010150    2.17742413226034   -0.46681444106760
