    23
        -45.37061354  Gyration_radius:  2.45298622765 Dipole_moment: 4.901
 S           1.94614983424548    1.16173169775665    0.55621091508876
O           1.53312043109809    2.48714457467650    0.96060096558668
O           1.34637927825461    0.10096150068408    1.38326074252281
O           1.77794617379475    0.86692669276124   -0.84682770076910
O           3.51272720428977    1.09938712717298    0.85840860033839
H           3.62993168378531    1.84435794873546    1.43971613889031
O          -2.10552900166793    0.55136373731728   -0.83748406416516
H          -2.80746858748529    1.15256795968898   -1.09072628574541
O          -2.30109536679503   -1.89924035462561    0.31262789333876
H          -2.86848204142402   -2.44801952799966   -0.23076485030032
H          -2.34739927448696   -0.99491197115930   -0.06298213638431
O          -0.91804019541566    1.60822472685298    1.23343776836499
H          -1.63069614247112    0.99679530046085   -0.08104077887944
H          -0.55310492370985    0.86553385730657    1.72926886456323
H          -0.12715585006424    2.16604464078776    1.07838855545209
O           0.03972884884050   -0.50898352707731   -2.25385398077736
H          -0.78131310033857   -0.06734841390860   -1.97857246531992
H           0.75499059505644    0.10116092221109   -1.97676454210475
H           0.31342740956340   -1.43412219660499   -1.01822314513742
N           0.38736137149734   -1.84862377366721   -0.03129644187911
H           0.82334447975944   -1.08082967546657    0.57961240612086
H           0.96050644427651   -2.68401108979291   -0.00960799675877
H          -0.58532928060176   -2.03611014610920    0.28661151796237
