    23
        -45.37705763  Gyration_radius:  2.29114995506 Dipole_moment: 4.621
 S           0.11618055991850   -0.25412003815595   -1.71024598944323
O          -1.14768170467896   -0.80138007283581   -1.20418048469912
O           0.44212003721572    0.99533296060934   -1.02401954735362
O           1.17418277113316   -1.22241139693302   -1.68109821507646
O          -0.14579616937719    0.16997812487435   -3.21203894184585
H          -0.28267159548559    1.10911412120137   -3.13635713998644
O           2.47713874618014    1.04626701052365    0.75500564048143
H           1.87961080623755    1.08669754166248   -0.01500923505153
O          -2.88761463292421    0.87494733750699   -0.06826026147314
H          -2.29494540932763    0.26762961582640   -0.55780194232567
H          -3.76290444413639    0.75350193745077   -0.43713666688419
O           2.13427293699873   -1.61480451882299    0.77212218439833
H           2.51019664925996   -0.71827711228037    0.89771784922446
H           0.67726311838178   -1.45691642034184    1.20337348463800
H           1.97640781770019   -1.66768282163493   -0.19233523153493
O          -0.64194377475601    1.41207214279349    1.38792185569978
H          -0.21337497720589    1.43473639317549    0.50661889201288
H          -1.58284386699297    1.50999509493479    1.18198711153692
H           2.05890542394823    1.57663095759756    1.43735071249280
N          -0.37541802571348   -1.21272963631684    1.28835369330942
H          -0.77001130453599   -1.26015084445781    0.31709424411533
H          -0.47797636599464   -0.19342450517453    1.56728721134442
H          -0.86309658589813   -1.83500586119865    1.92365076639809
