    23
        -45.37061455  Gyration_radius:  2.45305484366 Dipole_moment: 4.876
 S           1.20970115835904   -1.49285002265520   -1.32438360479741
O           0.50973720103970   -0.30365733190092   -1.83840733640605
O           2.60955871053870   -1.24840884607138   -1.05668348359413
O           0.47079574936039   -2.08373348824213   -0.23371867952620
O           1.19033238936833   -2.54682643516008   -2.52379732107934
H           2.09212921016883   -2.51465765284628   -2.82799984254793
O           0.31387147270348    1.06446093419485    2.05195887071115
H           0.82042501951855    1.33838135937819    2.81787665211491
O          -1.59695103829325    2.44159198257005    0.70255504346763
H          -2.27323045013943    2.71619684491425    1.32352912615327
H          -0.87119781685315    2.05450898864320    1.23579488735896
O          -1.23829114399617   -1.18674333153486    1.54580778380195
H          -1.70495206615075   -0.48819541457511    0.22290344967165
H          -0.59564248457609   -1.73610354864053    1.04975652998934
H          -0.70156160408410   -0.48418510879167    1.94977725617287
O           1.96080410687777    1.04695121686988    0.02601619668455
H           2.40977400213284    0.20626231583459   -0.20146263225542
H           1.41280420607374    1.20461901280770   -0.75239784435916
H           0.96982457985757    1.01139888727621    1.30166091103937
N          -1.76657517853509    0.10813817834433   -0.66712532649628
H          -1.79987356754885    1.10098402586019   -0.35841227868190
H          -2.56666168352486   -0.13817751324441   -1.23807231643777
H          -0.85482077228308   -0.06995506303272   -1.20517604098415
