    23
        -45.37061482  Gyration_radius:  2.45303688223 Dipole_moment: 4.859
 S          -0.62741971739833    1.84730362070644    1.27973580349831
O          -0.46915081653251    3.01068612051374    0.43566657471669
O          -1.57006731076637    0.86162356651332    0.72476464638318
O           0.60381800613492    1.20449751093635    1.67422631515447
O          -1.31782705072853    2.38889344030046    2.61385936977009
H          -1.59438034672036    3.26128165351473    2.35111409780621
O           1.46885284792155   -0.40329978889952   -1.76556374714549
H           2.06874049229581   -0.15067428605940   -2.46884714453180
O          -0.31860704334451   -2.44543313899348   -1.71126624631082
H           0.14300508328970   -3.26211196845699   -1.90680888929010
H           0.32589190087640   -1.72093748687940   -1.85486701052664
O          -0.38072862302001    1.43606169694582   -1.65535867494409
H          -1.16131955993313    0.99529485135790   -1.29844656713658
H          -0.25775770956516    2.18117784607094   -1.03086376045274
H           0.80197348765004    0.33660004937247   -1.70324088185095
O           1.88248110656428   -0.96265856357508    0.92667216097595
H           1.64402852767727   -0.09922552648950    1.32498951902000
H           0.39004727766422   -1.43547288371069    0.99106460770177
H           1.97954544526790   -0.77734093180192   -0.02263966494190
N          -0.66302338288963   -1.56529578665437    0.82987185648099
H          -1.09422760404105   -2.12820704019499    1.55375599353763
H          -0.76942557273180   -1.99475928872721   -0.11156231940637
H          -1.08444944767285   -0.57800364578823    0.82374396148542
