    23
        -45.37061502  Gyration_radius:  2.45317117871 Dipole_moment: 4.852
 S          -1.56286665724616   -1.69911984731080    0.33811810025247
O          -2.66954843554489   -1.10590891566286    1.05539571990606
O          -1.30724691955203   -1.05026884771609   -0.95858957351059
O          -0.33830590566642   -1.82082137003722    1.09357478435148
O          -2.04056786699374   -3.18101606513219   -0.01652976203706
H          -2.97153198784654   -3.13840355936214    0.17912301948152
O           0.62605993568796    1.95444859660161    1.10539197529036
H           0.53302043871858    2.64727814873560    1.76085129851980
O           1.51884550186812    2.14515113529559   -1.45076111289409
H           1.17794183345675    2.19946175169588   -0.53326986109320
H           2.38494136567461    2.55511153796506   -1.44343859699631
O           1.92981291097010   -0.50112439795588    1.16294606953023
H           1.17861320388809   -1.09576586316556    1.37068946690181
H           1.63523138128954   -0.62007521009703   -0.37146880917395
H           1.59526578254731    0.39238971561941    1.34907882291865
O          -1.78785581114367    1.26755916412929    0.38636148096923
H          -1.70293227433516    0.93274191551847   -0.51449890603423
H          -2.21249234399307    0.51558687812874    0.84964967512720
H          -0.30407047686804    1.66888580917304    0.88298754787430
N           1.20569964986880   -0.54605579618878   -1.35214770151841
H           0.16704179358552   -0.79220621743155   -1.23851347664148
H           1.64720416385891   -1.17617712984317   -2.01158247610585
H           1.29774073778127    0.44832855704579   -1.64336770512776
