    23
        -45.37061477  Gyration_radius:  2.45317703169 Dipole_moment: 4.868
 S          -2.24805383071670   -0.02825738863311   -0.62558442030479
O          -1.71746586078287    0.70386096755949    0.53660029833968
O          -2.36148449217299    0.79877537420269   -1.80633159790405
O          -1.53326670942398   -1.26876973286748   -0.81233399239576
O          -3.74875214518011   -0.41042465540611   -0.23622534661314
H          -4.25066816167250    0.19769859749902   -0.77022454450354
O           2.04785694671640    0.23850578202343   -1.09069838755110
H           2.61418636545580    0.43703983941975   -1.83780254481480
O           2.45792136637798    0.77719515033735    1.53763430135363
H           2.39618926221679    0.66952194818177    0.56521070167198
H           3.30064518676861    0.40336656072883    1.79916401629914
O          -0.01519305375529    1.82918634385331   -1.26483236708010
H          -0.81755464913883    1.50133617698294   -1.72195091723152
H          -0.32747793815255    1.94585666664673   -0.35937204025816
H           1.24208916669692    0.81639781919623   -1.20391287512522
O           0.87495590968210   -2.12575258301938   -0.21392843091522
H           1.40752147912093   -1.44950282097269   -0.66554021730080
H           0.44049957510539   -1.35440315824711    1.07945039266973
H          -0.02343232329741   -2.02909948170691   -0.59400535126838
N           0.13929971593384   -0.60528364393700    1.78624480484606
H           0.95501993393379    0.02733871264462    1.91520611023738
H          -0.16940940299953   -1.00875345849313    2.66300876051108
H          -0.66342636071523   -0.06583301603621    1.32022363732534
