    23
        -45.37061462  Gyration_radius:  2.4531182769 Dipole_moment: 4.870
 S          -1.57016701463290   -0.59358162697339   -1.62108663009744
O          -0.64513759585644    0.54619238751266   -1.73777516891926
O          -1.07308336744282   -1.78860918646003   -2.26593096221591
O          -1.99130467420558   -0.76597192048804   -0.25086534612813
O          -2.86517784447376   -0.17486708950519   -2.45621425964204
H          -2.77698619082295   -0.71211417742584   -3.23752146528042
O           1.54520949722748   -1.12454638917220    1.33805724118749
H           2.05886849135940   -1.88336199587224    1.61849285613338
O           2.28323154546513    1.48610312658313    1.25910975126779
H           2.59115899528622    1.74370408228278    2.12929936010606
H           2.13843990592108    0.51708477068963    1.29145041521428
O          -0.96030416108968   -0.18170421890332    2.09186020444983
H          -0.11400274761851   -0.65463639015045    2.02138508427531
H          -0.66185452550118    1.10115752926278    1.24214868466867
H          -1.51204929362414   -0.55166148728062    1.37106913527540
O           1.29376849659462   -1.30205695161616   -1.25470289292053
H           0.49568469405238   -1.74091998575632   -1.61608762204161
H           1.18844816291948   -0.39485979399997   -1.56605334912881
H           1.41393517712606   -1.23824903890332    0.35526156329179
N          -0.30289238060118    1.79634304280968    0.50779591819684
H          -0.46847632947203    1.33054578942541   -0.44523111808647
H           0.71922205523047    1.90043606282237    0.67128641777681
H          -0.78653088581846    2.68557347115658    0.55425218262703
