    23
        -45.37061496  Gyration_radius:  2.4531519794 Dipole_moment: 4.856
 S          -1.44626348463778   -1.11180954135518    1.45468509033441
O          -1.42799216611404   -2.50603479313111    1.07138311165637
O          -0.11647972190240   -0.60400871227104    1.83085022707492
O          -2.07787060865748   -0.22432744196692    0.50680292247777
O          -2.31457718094465   -1.05737800521829    2.79374099201125
H          -2.37615138386444   -1.97898623185004    3.02451136679049
O           0.72723921861631   -0.28850110761357   -2.19646802123319
H           0.82318334195052   -0.76543172098140   -3.02206216259248
O           2.51365595001620    1.33469977915706   -0.95448269523602
H           1.96621068554566    0.70281842400316   -1.46622471248673
H           2.78535204277736    2.01806844703349   -1.56891582739421
O          -1.21036327390163    1.48608800812501   -1.28593708675434
H          -0.28413077538574    1.76441529500791   -0.05288464212132
H          -0.64579030738717    0.89787195658901   -1.81531109849424
H          -1.76783868381626    0.88129400836068   -0.75262294322195
O           0.76793854261144   -2.06869027977392   -0.28703721505724
H           1.10319964561080   -1.60520842700531    0.48992061716740
H          -0.08714968463713   -2.42379628710420    0.03404682725965
H           0.69113354356690   -0.98766134150240   -1.48520063762850
N           0.43006349008398    1.68585221273651    0.74420240884630
H           1.36773421371309    1.62006785745957    0.29852583204195
H           0.20766908583010    0.76521490642625    1.24962298336585
H           0.37122750092728    2.46544299486677    1.38885469319911
