    23
        -45.37061499  Gyration_radius:  2.45311602606 Dipole_moment: 4.858
 S          -0.30310114583182    1.66048248617263    1.61082702141223
O          -0.91213725524249    1.02030716033449    2.75556552069142
O           1.00015079053984    1.07573780909310    1.25403685750665
O          -1.14874181687663    1.76322588326049    0.44493939657952
O           0.01739239073076    3.15081582746872    2.08642293831350
H          -0.10990275160034    3.08722639791653    3.02789996810981
O          -1.05797188269187   -1.99528914625038   -0.58035218008900
H          -1.67391754269142   -2.71832358695219   -0.45337745041927
O           1.43580546809819   -2.05507428531464   -1.65061937864603
H           0.54783974212836   -2.15664723841914   -1.24800990844008
H           1.38655909925218   -2.45343808205613   -2.52076917271442
O          -1.31775333870516    0.47275439366975   -1.83484685968945
H           0.22691672652907    0.65875832263796   -1.64673447989048
H          -1.43914353182322   -0.43298467978348   -1.50341448653306
H          -1.49856697759176    1.04673088260112   -1.06097562127558
O          -0.20239407652966   -1.30774949115713    1.78845607037270
H           0.67438441828199   -0.93105543888097    1.64628885155200
H          -0.66751415040839   -0.58378879640797    2.25736830872425
H          -0.78392176503957   -1.71207293243398    0.33659590103517
N           1.23776454608634    0.62421597175813   -1.28821480024409
H           1.18671748409288    0.85097746604882   -0.24016722455568
H           1.83544796417675    1.28972299292188   -1.76433548219190
H           1.56608761512695   -0.35453189623251   -1.41658377961078
