    23
        -45.37583672  Gyration_radius:  2.28632417099 Dipole_moment: 1.592
 S          -0.47484828132962   -1.35746476017607   -0.79162583954967
O          -1.53145651192493   -0.35457628994405   -0.85877171579533
O           0.78510174454105   -0.87415738808308   -1.32232936187358
O          -0.32071519540493   -1.91242827360197    0.53860749206159
O          -0.95754637037726   -2.53242956041270   -1.73715515294106
H          -0.29958114235745   -3.20694657440615   -1.60123546813103
O           2.09414458513528   -0.78725032083746    1.30638062905616
H           1.39549240903238   -1.28514799201732    0.85296043541561
O          -0.91003940633397    1.80897073063751   -2.34479158553917
H          -0.81692571514009    1.56749941699728   -3.26728695547331
H          -1.22981519461798    1.00608746144245   -1.88773133082219
O          -0.08921038929969   -0.54431364259175    2.89582946033458
H          -0.49257134636780    0.63898170709201    1.92845726525023
H          -0.38559688055055   -1.26157993136814    2.30954965797966
H           0.87636852434852   -0.55767980997147    2.78869236053692
O           1.18541124466513    1.64461350066793   -0.63329070608477
H           0.62745101044902    2.05815864338332   -1.31670984917294
H           2.52840266439198   -0.26289909505335    0.63069656693910
H           1.20732317323647    0.70292024203400   -0.91469454253041
N          -0.74888493941513    1.25343895899888    1.09257526470059
H           0.12804138599230    1.54243233077300    0.55077975671872
H          -1.29723276654240    2.06152429131313    1.36816827363657
H          -1.27331259949578    0.65224633322930    0.41292536886516
