    23
        -45.37061452  Gyration_radius:  2.4531821127 Dipole_moment: 4.876
 S           1.42142723323078   -1.60707932113047    0.91857108830469
O           1.36879949025482   -1.26414297459512   -0.51250292434952
O           2.45719712234166   -0.89120651961027    1.62975407353668
O           0.10557222014383   -1.52751985764468    1.50738717245160
O           1.86139255476732   -3.14122566211601    0.97015620441450
H           2.76762592628244   -3.07623446563529    1.25510300588201
O          -0.66974308000115    2.16701629502858    0.54923384928043
H          -0.62759613303177    2.98928541726999    1.03953672095583
O          -1.20941102067074    1.78940203746004   -2.08377054745301
H          -0.98919278132892    2.04391881379594   -1.16305486769252
H          -2.04904636071167    2.20454221932715   -2.28651969674730
O           1.77968009188108    1.28699974968424    0.34221060193700
H           2.10572298387276    0.65292477444625    1.01431306325004
H           1.79595525779186    0.75823360183329   -0.46471863804154
H           0.26563679934080    1.81974252507791    0.52747769277100
O          -2.08740347346378   -0.18857126858746    0.96771994386115
H          -1.39953730042604   -0.73348398302273    1.40440121099283
H          -1.73787908267716    0.71802336152462    0.99564704070839
H          -1.60029596182655   -0.65762817689188   -0.44640993321826
N          -1.04353983732662   -0.81493542074045   -1.35006590362545
H          -0.04178709626935   -1.04838758680399   -1.04253166490807
H          -1.04788690976767    0.08974840491541   -1.86370948452249
H          -1.42569061240990   -1.56942195357956   -1.90822799778344
