    23
        -45.37611075  Gyration_radius:  2.37902698591 Dipole_moment: 2.502
 S           1.93000489408340   -0.52534983228618   -0.00192321588273
O           1.91763164850629    0.81090335133360    0.58855337357918
O           1.46085318505431   -1.53834470655554    0.91545090760517
O           1.24913771498486   -0.54665041389035   -1.28749650335119
O           3.44781527700728   -0.86548875317642   -0.30597502283836
H           3.76051446607068   -1.05503549061915    0.57184789973274
O          -1.86719140389007    0.96214938218809    2.02004547912061
H          -1.59451093115575    1.01520620437995    2.93732046076355
O          -1.09698290551617   -1.77477897998107   -1.45679681879032
H          -1.01557322795513   -2.69380523148243   -1.71504792079290
H          -0.18003875471402   -1.42560384669437   -1.39722441890015
O          -1.18172608711881   -1.42965714231598    1.26396562948361
H          -1.41592834105716   -1.59347240569808    0.33425942403248
H          -0.20659921174650   -1.51581376450158    1.28430225102599
H          -1.69746317784432    0.01511409553866    1.74760549818386
O          -0.74219557895722    1.01163280420170   -2.19572026978949
H          -0.61496549923207    1.77081931186330   -0.76087779163728
H           0.11250530717444    0.54709003142804   -2.10616876987217
H          -1.39655066444983    0.30359297146543   -2.18104628661693
N          -0.30686945819301    2.08486805038785    0.19858496986524
H           0.63850894487864    1.61835667908404    0.37681015369198
H          -0.98163005989707    1.72990639552544    0.93278266610836
H          -0.21874614607084    3.09436129977329    0.23674829529497
