    23
        -45.37092413  Gyration_radius:  2.38089040668 Dipole_moment: 5.421
 S           1.73520206348347    0.62509333476778   -0.51479910938600
O           1.50254026546630    0.76046699305983   -1.92956117268450
O           1.21477422675015    1.74816657256457    0.26079128044505
O           1.28566444046213   -0.64206637551635    0.04910514240692
O           3.31196813454065    0.64013819959348   -0.32765415787872
H           3.58001659865548    1.15428724086311   -1.08176264139501
O          -2.59307926534694    0.58387954599477   -0.25870157433742
H          -3.13919366545413    1.28187869668337   -0.62313165827211
O          -0.11016366955825   -2.48037174360989   -1.32111519465531
H           0.51664301057856   -1.88014748162534   -0.87079111151176
H          -0.67988578439027   -2.83957866113561   -0.63894513198096
O          -1.02212113444030   -0.07100639907596   -2.21401893874498
H          -0.13748451190143    0.34355996838831   -2.21309240089416
H          -0.83427213425209   -1.02465732843453   -2.13574120697918
H          -1.99656310084246    0.29837588299604   -1.01433610309965
O           0.41218097331545   -1.08892640229558    2.47935585344241
H          -0.56060335125775    0.25098644140361    2.14234171327982
H           0.23335893956855   -2.02750841359292    2.55103671586729
H           0.88187833161171   -0.96092342557389    1.62145405308934
N          -0.85446878924806    1.12558498939838    1.65901726957705
H           0.00902091442744    1.44907453188579    1.10352128582826
H          -1.13976830134338    1.83483578558480    2.32492441203928
H          -1.61564419085350    0.91885804772328    0.95210268588034
