    23
        -45.37061496  Gyration_radius:  2.45313006498 Dipole_moment: 4.858
 S          -2.20400560178360    0.34189626742251    0.68518970355767
O          -2.99231007745640   -0.71225951678366    0.08643716987158
O          -1.13217425210196   -0.16890161524847    1.55583877761547
O          -1.68179076068129    1.31814022993541   -0.24178024631685
O          -3.20796044403827    1.11391168572711    1.65776022258076
H          -3.94796791919881    0.51556688473688    1.69009571202897
O           1.05981502176024   -0.92974579845630   -1.85691302034226
H           1.09585479908760   -1.42350751884721   -2.67739723183709
O           2.87012547459479   -0.86452374099141    0.16471240562820
H           3.72448498704367   -0.62387703724083   -0.19646899701759
H           2.27161891195808   -0.99410731563613   -0.60072227271848
O           0.66762213703533    1.77058996149104   -1.32161964677563
H           0.82802390778767    0.90604775796871   -1.73609613115719
H          -0.29051374495970    1.77266097638184   -1.11421712045411
H           1.01875384675740    1.45869332446913    0.17307245544672
O          -0.78770610224163   -2.04434070447981   -0.38706494981809
H          -0.53526148308406   -1.86195176038717    0.52613353133241
H          -1.69641071240511   -1.67988842422492   -0.42947005733063
H           0.31403673560556   -1.33557367107095   -1.33228642493546
N           1.14710726796544    0.99228914462717    1.13111538960475
H           1.87131921497817    0.25561274492282    1.00907348305511
H           0.20477648377644    0.53413343485033    1.36456057108163
H           1.40256231960389    1.65913468085288    1.85004665689572
