    23
        -45.37092340  Gyration_radius:  2.38172501575 Dipole_moment: 5.374
 S           0.93568702540487    1.56423307411368   -0.58769494599460
O           1.23420745974471    0.60708897609750   -1.64974381033016
O          -0.20888023541110    2.38929692679959   -0.87661857570927
O           0.88178024648370    0.89556916369353    0.70698952818743
O           2.17623547551696    2.55195081910332   -0.50794683536040
H           1.87977580768503    3.26095644181334   -1.06856797327556
O          -1.95450584728871   -1.66649962263987   -0.74541443633137
H          -2.51698915279462   -1.81086622098580   -1.50778585190839
O          -1.25534878473229    0.95260125751246    2.32913675664633
H          -0.43516755685692    1.05219115845945    1.80616474434061
H          -1.21325393666730    0.08681735350282    2.73844284492621
O          -2.28142029268344    0.84487379469621   -0.19456733770838
H          -2.18999016343212    0.95562535621047    0.76991687332451
H          -1.61160128211275    1.45188277965605   -0.56529080116740
H          -2.09255964185417   -0.70266909236715   -0.49918255703095
O           1.90512256722443   -1.43029868085975    1.35112055176422
H           1.73046213749296   -1.57217382988712    2.28249928875939
H           1.12374713127717   -1.92401084680660   -0.06381425450586
H           1.65486914258181   -0.49533068264430    1.16124366439389
N           0.67334149497147   -1.81885621771777   -0.99702845180142
H           1.01274053248633   -2.51734538612234   -1.64880651884686
H           0.93331542958731   -0.82875732329166   -1.32969082607552
H          -0.38156756662252   -1.84627918832225   -0.90336107630683
