    23
        -45.37092313  Gyration_radius:  2.38267945118 Dipole_moment: 5.340
 S          -0.02186086266342   -1.87924286758926   -0.35471984675686
O          -1.12739546345561   -1.40212165954223   -1.18133336630679
O           1.22565333137959   -1.95600547717321   -1.07047756843984
O           0.04821627374257   -1.12901828187674    0.89370734148855
O          -0.37856403346567   -3.36949634313871    0.06087377195643
H           0.07264552124261   -3.85965722263798   -0.61810184738985
O           0.31493138479211    2.35581671827065   -1.23446250189809
H           0.42666540598987    2.67998537247803   -2.12938159160459
O           2.24044798069324    0.18743833194692    1.70610341648320
H           1.86337808160766    0.91420142197053    2.20444832840935
H           1.49803624376681   -0.40583579821563    1.47566465397631
O           2.15700383647186    0.54835357475214   -0.99609357715883
H           2.45321953813305    0.52819302342964   -0.06747721368717
H           1.86989319218548   -0.36921505873338   -1.17020618356902
H           1.04272079696712    1.67481192299081   -1.11189444302770
O          -1.83873616165805    0.31348156018133    2.00375274238725
H          -1.48325133223600    0.66498848633621    2.82114173319602
H          -1.96734951490317    0.95671771547987    0.44812065807464
H          -1.18211811406283   -0.34573155728260    1.67640810269749
N          -1.85751673280028    0.99424689570844   -0.58732928357439
H          -1.60381952214782   -0.00874013840151   -0.88320252350418
H          -1.03713291846346    1.61148059929138   -0.84895988363234
H          -2.71506690110955    1.29534879172840   -1.03658090813109
