    23
        -45.37705573  Gyration_radius:  2.29117042401 Dipole_moment: 4.737
 S          -1.64521323906090   -0.48772456885036    0.23383371476725
O          -0.87122669440287   -0.71679978443216    1.46001303433039
O          -1.21649921133324    0.75182855592284   -0.41216836757860
O          -1.63264264670928   -1.62850595404136   -0.63510172779809
O          -3.13543211920739   -0.21255130651828    0.68791214970724
H          -3.16620624968834    0.73842176567864    0.72398078959342
O           0.18572917945642    0.64590075296254   -2.71944186979784
H          -0.47662040638803    0.70099168493624   -2.00528154918078
O           0.22415574679879    1.39741163748431    2.66426443875734
H           0.05196329682891    1.37101071005537    3.60593918710409
H          -0.24249834679349    0.62812461600124    2.27640585866841
O           1.23459935521088    1.67307371280781    0.14190660634618
H           1.15720730437422    1.92074688563699    1.07469480195863
H           0.83144164239622    1.33050641237377   -2.52948810401948
H           0.30684460943575    1.50217148872617   -0.12425564895813
O           0.67421128450197   -1.87589373933654   -1.94454661899437
H           1.29610719554552   -1.39174657329765   -0.63594452717777
H          -0.23377792471980   -2.02076654116714   -1.60930969077737
H           0.59720565065771   -1.05902146115927   -2.48089207959646
N           1.50455093578784   -0.94609408968178    0.32990257863625
H           0.62514148174079   -1.04035890825679    0.89510653773050
H           1.63437952310934    0.10124219225047    0.21285066674460
H           2.29657964216704   -1.38196749794090    0.78961981372831
