    23
        -45.37061507  Gyration_radius:  2.45297967493 Dipole_moment: 4.853
 S          -2.11611722206235    0.60470588485534    0.77327828986263
O          -2.39401210623268    1.91547071869760    0.22948394830080
O          -1.86779248419178   -0.40596290752079   -0.26828074155805
O          -1.07765300967030    0.56459726066762    1.77575898104000
O          -3.47052806515112    0.15252227163115    1.48803738887474
H          -4.09109845776232    0.79360293281469    1.15525483535973
O           1.94713454534002    1.12043656267575   -0.62041104118697
H           2.47119109462417    1.89203612724117   -0.84015669424051
O           2.06485723001470   -1.36967282227908   -1.69412832028003
H           2.08178735935683   -0.43197245279357   -1.40880235300526
H           2.96520239859337   -1.69054721847926   -1.62544098838673
O           1.44381805145839   -0.16566531407406    1.79334171597779
H           0.57325447910142    0.22190846999802    2.02341722492376
H           0.74988601392533   -1.30303187882410    0.96833220393744
H           1.78523613269813    0.40090707127239    1.08104366795958
O          -0.46601805039648    1.56996539325877   -1.50864649822350
H          -1.11971019965078    1.95942140017144   -0.89105566781253
H           1.01875624059219    1.33272421905319   -0.91936280996380
H          -0.84212212487120    0.69877943982901   -1.68361095081853
N           0.21715977157269   -1.86629924760577    0.22633397348327
H          -0.68058534977602   -1.31338678940446    0.02493512497984
H          -0.00855619372929   -2.80136126211540    0.54495721251618
H           0.81590992621783   -1.87917787906989   -0.62427851174192
