    23
        -45.37061492  Gyration_radius:  2.45307395426 Dipole_moment: 4.857
 S          -1.37516032939067   -1.69002371288701   -0.83422805088302
O          -0.29948297315138   -1.03875348960014   -1.60022540844987
O          -0.95044404572907   -2.91969154281266   -0.20289825712738
O          -2.01819973636169   -0.74088081274704    0.04358122904167
O          -2.46090659686484   -2.13011375836080   -1.91921922817443
H          -2.33596670210225   -3.07361540755812   -1.95012610678314
O           1.16509290082515    0.39718417604175    1.97992203482123
H           1.52494534334793    0.16162780214180    2.83626246873575
O           2.24635035564300    1.99033096042133    0.06649910786469
H           2.45381213129868    2.84057743035977    0.45681604101983
H           1.97122698941347    1.40593698780991    0.80384214838500
O           1.28495946605085   -1.74761323474114    0.49617323411484
H           1.34734378737303   -1.42875547353397   -0.41237762957231
H           1.16968245537073   -0.44605901434322    1.44599097529985
H           0.49785876578057   -2.33020218072479    0.45940373079103
O          -1.27783950582676    1.48642686078530    1.21906922609047
H          -0.68833212271771    1.63438030943937   -0.22518147455056
H          -1.76017635407058    0.67404688213468    0.95752980495607
H          -0.50068316754424    1.16530138109309    1.70672713774894
N          -0.13502132154217    1.50702867764868   -1.13586370468822
H          -0.49869744904361    2.08067384618495   -1.88785337728547
H          -0.21619279977180    0.46650964290032   -1.38712376451064
H           0.85583090901557    1.73568365037367   -0.91672013684545
