    23
        -45.37092467  Gyration_radius:  2.38133405769 Dipole_moment: 5.422
 S          -0.32993283727197   -1.55264269241957    1.06520319989352
O           1.03569353848479   -1.90661811548308    1.35427552481316
O          -0.83417341207572   -0.47814125212094    1.91675275374286
O          -0.59166594093347   -1.26302140179942   -0.33952880460636
O          -1.19697704140488   -2.83924761408923    1.40310355632586
H          -0.66683590821373   -3.24439906772188    2.08114226057072
O           1.36119152029333    2.30135791951851    0.02178128096228
H           1.90626077406931    2.80459802164665    0.62847564871360
O           1.32421515866632   -1.13916448232997   -2.21545324960053
H           0.61992801153187   -1.32581566937523   -1.56346221301232
H           0.97509892035610   -0.47319451742170   -2.80992432039448
O          -2.36680452396367    0.39698276369756   -1.32141824135730
H          -2.31805783788176    0.33549824200591   -2.27639940636618
H          -1.81027749337023   -0.33650010813332   -0.96754519993100
H          -1.67926984379266    1.45595055267580   -0.19880242731616
O           2.43679860704231   -0.05727755230916    0.02707773751946
H           2.03015852165738   -0.71363452070851    0.62570833602756
H           2.31809539697364   -0.44436070695504   -0.85989204374286
H           1.78233792122753    1.39039342515735   -0.01141795093658
N          -1.14575105463995    1.74035677790346    0.64943608711558
H          -0.16794879880230    2.04946702700749    0.38412326857311
H          -1.04251537172235    0.84356290176412    1.23570848780534
H          -1.63956827622776    2.45585009950882    1.17105570521667
