    23
        -45.37092432  Gyration_radius:  2.38078637766 Dipole_moment: 5.433
 S          -1.06812677212174    1.57756123503209    0.19887655253171
O          -2.25219619761864    0.96749443272446    0.74622639897041
O          -0.01757650945068    1.78082001114237    1.19336790224591
O          -0.53707188361701    0.90621384259212   -0.98134369399414
O          -1.50736376710359    3.02169850420440   -0.29404072121016
H          -2.22959186213681    3.20503113956991    0.29732160453516
O           0.84242737992901   -2.13639129156700    1.36421132470269
H           0.80801919322904   -2.47363271724082    2.26053598544666
O          -1.46355375372127   -1.42893471985843   -1.92702097938541
H          -0.66049364210157   -1.83679938971734   -2.25545445805068
H          -1.22539374135076   -0.51627804087724   -1.66965549490787
O          -1.63390669963200   -1.63300044927126    0.78650559436110
H          -1.92569379416914   -0.70885133007418    0.90997689492998
H          -1.75184001393081   -1.79106861434482   -0.16850622102933
H          -0.11468567804750   -1.96320843185802    1.11442284321779
O           1.96498950269077    0.76326796398561   -1.74828955585689
H           1.98287576975108    0.29498261224811   -2.58405990662887
H           1.01536374122547    0.94379340223991   -1.55192876289087
H           2.20284788698048    0.29018639751195   -0.14273191809995
N           1.98523595499244    0.19689148041703    0.87137978746751
H           1.18291940720446    0.89036288260820    1.05696836700264
H           2.79280894371172    0.42100513318503    1.44192479716357
H           1.61000652529300   -0.77114405266981    1.08131365947074
