    23
        -45.37061479  Gyration_radius:  2.4531540118 Dipole_moment: 4.865
 S          -2.21535175559983    0.36598622304414    0.63550205838301
O          -3.04420681511349   -0.17852603594167   -0.41691868560557
O          -1.33070574903323   -0.64070600381546    1.24556098684894
O          -1.46689058812586    1.54756045277169    0.27704891844184
O          -3.23191884839832    0.79222203044124    1.79078998906611
H          -4.03476565702425    0.36093538287974    1.51473923785602
O           1.16447151111252   -0.18916327593880   -2.01211939593359
H           1.24298771368376   -0.27595022618658   -2.96320451184151
O           2.70125270499974   -1.30705518174206   -0.07360809073524
H           2.19245204155482   -0.99108926362584   -0.84958236044308
H           3.61695988488166   -1.07680063605175   -0.23736973309767
O          -0.97352635806809   -1.51178080131743   -1.30804588152736
H          -1.81961211371218   -1.02251188958045   -1.23686977909330
H           0.31532806697857   -0.65421124775682   -1.76954122640852
H          -0.81764141730570   -1.78675059593880   -0.39634657381113
O           1.03658763150866    2.03340039060459   -0.34556557813659
H           1.15698788304324    1.04941961843446    0.86793757740375
H           1.14234454917444    1.42212004687500   -1.09392259638425
H           0.06734003696802    2.10205708928913   -0.21584383318214
N           1.10713924779489    0.19883858882140    1.52043473631087
H           0.09458310557108   -0.15393350333152    1.46820915428676
H           1.34942647010085    0.43484799354734    2.47562863782962
H           1.74675848501517   -0.51890914547361    1.12308694977609
