    23
        -45.37092307  Gyration_radius:  2.38100168829 Dipole_moment: 5.395
 S          -1.07600537911030   -0.81959045885770   -1.35758937056219
O          -2.00200204901982    0.13989757771173   -0.76156048068541
O          -0.38870800993602   -0.29928810683843   -2.51133851121713
O          -0.19771814864892   -1.38605826357435   -0.34084070112296
O          -1.95749129634458   -2.03053599053121   -1.88447235324297
H          -2.09097470609465   -1.77653387316028   -2.79143424631030
O           0.98374868472495    2.37222308819424    0.73167248325969
H           0.91496088833476    3.28977088812364    0.46376065099418
O           2.48112774362358   -1.24162842846037   -0.41911577698425
H           2.69692103766039   -1.15283642833420    0.51067362773701
H           1.52053557956370   -1.41826745593006   -0.46479930562105
O           1.60991393674891    1.12545064018458   -1.45250490290393
H           2.17106467445446    0.36635393735185   -1.20776485307318
H           0.86716314628653    0.72105771452968   -1.94172599844417
H           1.25505940492155    1.87819202057739   -0.09958667921829
O          -0.58260248412614   -1.44900043891198    2.25140538375600
H          -0.50535286481938   -1.56700884645166    1.27528233881029
H           0.14978483403761   -1.92958855870312    2.63963995872084
H          -0.91289492661801    0.19362983952381    2.02242678634090
N          -1.17648580345313    1.05407821650103    1.49846919316741
H          -0.31466535977406    1.62573534731795    1.26896738481396
H          -1.86504568426338    1.59687458763660    2.00754759622990
H          -1.58033322811469    0.70707301208620    0.56288778557272
