    23
        -45.37583632  Gyration_radius:  2.28660902552 Dipole_moment: 1.594
 S          -1.47272478513385   -0.59882581866853   -0.40589873557950
O          -1.61334036412452    0.52429575294451    0.50060308999048
O          -0.73306545698461   -0.25350101354157   -1.61433315847567
O          -0.92943489819077   -1.76471374343389    0.26264659858178
O          -2.92711762203755   -0.97833692644548   -0.90440625884433
H          -3.35916837163437   -1.27812889449427   -0.11078381982050
O           0.20384713572204   -0.60978743607571    2.51114800695714
H          -0.40715949388509   -0.91823960927739    1.82319224575636
O          -0.32310654213147    2.39211942379047   -1.94372157295865
H          -0.53503612712290    1.43780468542855   -1.93390365504960
H          -1.15400457168411    2.84513247086144   -2.09307742251781
O           1.68238882864131   -2.23863534984718    0.92452432182905
H           0.78843791318343   -2.46546279362355    0.61576693152604
H           1.85617392601726   -0.96216049740008    0.00769056979792
H           1.51876255483922   -1.83104798341047    1.79108934279805
O           0.60632631563048    1.95632784057682    0.56470088457388
H           0.05071546544896    0.33294801163237    2.59972994318791
H           0.45520244060322    2.46835495181291   -0.25047560768632
H          -0.25395461526017    1.49838091858227    0.69348010918239
N           1.71367521925911   -0.10586816476818   -0.61529218769417
H           1.46039599072108    0.75311715631910   -0.02853403760698
H           0.85298912854094   -0.27699164077461   -1.18834748900408
H           2.51919792992262    0.07321865114089   -1.20579809864358
