    23
        -45.37092309  Gyration_radius:  2.38119106114 Dipole_moment: 5.391
 S          -0.27384123581825   -0.08849539321669   -1.89527637002490
O          -1.62585180725136   -0.27482570480095   -1.37501601449292
O           0.02528726340376    1.28430143464153   -2.21172203938110
O           0.70466625648494   -0.73053573974747   -1.02552046267165
O          -0.20660595417974   -0.87782527919170   -3.27126324520293
H          -0.41230714691926   -0.18400135310348   -3.88862143115896
O          -0.70429401535554    1.42915145239327    2.14444568152944
H          -1.29961345882890    2.14820140417817    2.36103302342439
O           2.74555013302810    0.55723025140560    0.14887401741521
H           2.80667133465698    0.09758159477229    0.98788820278331
H           2.09386065834679    0.06573273926150   -0.38938646609683
O           0.28068382087168   -2.62279954830908    0.73824989432223
H           0.47231251319601   -2.02776844591392   -0.02460453297372
H           1.12943572443987   -2.86301902288075    1.11242731323147
H          -0.96360531954662   -1.58777206711966    1.22818826743401
O           0.68354688620767    2.34015439342061    0.15413481598104
H           1.57340770197021    1.94508159019078    0.20948733597473
H           0.36921039092671    2.08840492803670   -0.73603838921581
H          -0.13793674972400    1.77790966023765    1.39189634504399
N          -1.66294046589772   -0.82125290419371    1.14001606168993
H          -1.71590756190825   -0.60177185154028    0.08749255954545
H          -1.31291385846645    0.05553822853703    1.62063750579494
H          -2.56881509961996   -1.10922037707775    1.49267793702541
