    23
        -45.37061482  Gyration_radius:  2.45308058833 Dipole_moment: 4.863
 S          -2.02196532792748   -0.37318148944515   -1.10335142351534
O          -2.20129276380740    0.72705448121116   -2.02440745441506
O          -0.78548519188360   -1.13265140590034   -1.35356405489192
O          -2.12955144595599   -0.02630334977286    0.29410847497910
O          -3.21345272399681   -1.38646972608018   -1.42433534539306
H          -3.53739633635590   -1.05130794509316   -2.25458183294092
O           1.26249942620505    1.86124276087169    0.61578261578146
H           1.49096867725519    2.79189298996069    0.61608617243537
O           2.91425060992751   -0.29230952768095    0.65684940653424
H           3.50184204162881   -0.21382722780720    1.40977800353604
H           2.41701357187889    0.55080182622197    0.60350248342872
O          -0.41329526043820    0.35345067938394    2.24392829401062
H          -1.22344527901170    0.33207034143373    1.69244144123776
H           0.14345571008823   -0.92252971027768    1.52416006479310
H           0.13755328854736    1.04831581325336    1.84560773324290
O           0.33822606321179    1.31247736504072   -1.76351762259608
H           0.86246925945332    1.68359107684756   -0.28113996932513
H           0.52071748707764    0.37499129312419   -1.90068739934622
H          -0.62986472099852    1.36024976291417   -1.90769777789657
N           0.55304240138850   -1.61502288970888    0.81408715791818
H          -0.00789370255831   -1.47614197205184   -0.09069258427346
H           0.48001853656403   -2.57500300874388    1.13019147721516
H           1.54158567971253   -1.33139013770049    0.65745215948259
