    23
        -45.37092282  Gyration_radius:  2.38077956429 Dipole_moment: 5.404
 S           0.35771724960739    1.84451404848741    0.38641808809798
O          -1.01993462126497    1.68877410665039    0.84607802897172
O           1.32743265275935    1.65409699652683    1.43407776893912
O           0.59607515878226    1.03904785077137   -0.80537001693906
O           0.51015314539653    3.35453999809202   -0.07998053158849
H           0.85131387105197    3.75554383110146    0.71227458448950
O          -0.64514888367402   -2.29410859901174    1.20148939399118
H          -0.88894668537250   -2.60213902859092    2.07556827908108
O           2.47251858165484   -0.87154872747708   -0.98524452060385
H           1.89213638031530   -0.08485959754227   -0.96862856188069
H           2.02954170889765   -1.52408776303549   -1.53018847829242
O          -1.18557261736607    0.07472988019331   -2.46881632382111
H          -1.91537297485022   -0.45440091117155   -1.03718953717249
H          -0.50828002503975    0.55987579584103   -1.94103769430273
H          -0.71186312861945   -0.36392535099475   -3.17680582517197
O           1.56978435502606   -1.00385399866546    1.58292055713156
H           1.48871370830527   -0.03537582364284    1.68319048800599
H           0.22851846617297   -1.81514672096223    1.32872071124380
H           2.11209436253315   -1.11284696274976    0.77969861283096
N          -2.12260407311127   -0.47077429607450   -0.01698102987149
H          -3.12040185283798   -0.52824017314797    0.15339355109828
H          -1.72198130001746    0.44981228463872    0.37169337192161
H          -1.59589344832508   -1.25962681919973    0.45471910387775
