    23
        -45.37061489  Gyration_radius:  2.45309762065 Dipole_moment: 4.860
 S           1.28145511614248   -1.86133889851026    0.58013224208838
O           1.84030205062329   -0.56077049303057    0.17509699329098
O           1.17819000000239   -2.00649877214152    2.01516394466865
O           0.06965705867027   -2.14239909028859   -0.15295877525222
O           2.36176323276815   -2.94637890393135    0.12676419353165
H           2.74424039734891   -3.20215656885753    0.96042049234044
O          -1.89048041573736    1.07145096799810    0.84572513950112
H          -2.57145526378932    1.24101701236711    1.49826508821981
O          -0.60939200745260    2.83666673129587   -0.77001285766894
H          -1.26490707334928    3.33109048553904   -1.26414632078253
H          -1.10265578994338    2.29773648159998   -0.11643225729280
O           0.27655371696876    0.44817356559968    2.16193919279254
H           1.00879600532432    0.70273404025172    1.58754131799460
H          -1.08782362579215    0.78361469398872    1.36430302031201
H           0.46182138695853   -0.49944267987486    2.32920028758281
O          -1.77336712378760   -0.67691401741852   -1.31336670664065
H          -2.04748716628990   -0.12914103726233   -0.55853902838194
H          -0.43991442109877    0.03173606719158   -1.73233229401049
H          -1.27319163927338   -1.41884968122853   -0.91294921498248
N           0.49515347183791    0.55826992918154   -1.73858630484208
H           1.10077920015112    0.09289840832160   -0.98427764012495
H           0.28636632721426    1.53887386438476   -1.46101244917371
H           0.95559657248288    0.50962788481250   -2.63993807316360
