    23
        -45.37061485  Gyration_radius:  2.45314448659 Dipole_moment: 4.866
 S           1.53093580527565    0.51346349200348   -1.68463176366398
O           1.95658671789589   -0.74506134651231   -2.25562209021945
O           0.07761940745842    0.72616939685832   -1.78861312063762
O           1.98365414722382    0.75893863524735   -0.33576725564350
O           2.19044816656063    1.63666991841718   -2.60821765193497
H           2.47507717530236    1.12874211202745   -3.36168624594934
O          -0.36039327550524   -1.78226856545233    1.45993951513562
H          -0.22273365954505   -2.66927088653151    1.79545754924859
O          -2.66569239014917   -0.35494458892242    1.33360108525144
H          -1.90559710971123   -0.97131336880294    1.39094955872346
H          -3.05121980295908   -0.31716725745691    2.21013475240854
O          -0.10430280783988   -1.90997100112983   -1.13515099529946
H          -0.20584774697018   -1.84098207966910    0.47566952003376
H          -0.64267205820290   -1.18879205871109   -1.48315123538836
H           0.77502518530906   -1.72085230495745   -1.52411303482643
O           0.87095175643818    0.64274332565980    2.03922953876113
H          -0.22939205957498    1.33611627097162    1.16458790188470
H           0.56258894448241   -0.27909116947534    2.03197020879440
H           1.51457837104794    0.69528733053955    1.30176995356793
N          -0.97628979928141    1.56219846461302    0.42806941978207
H          -1.21638836191366    2.54661020731249    0.41663450908344
H          -1.79912087629196    0.96379277455749    0.64497374923306
H          -0.55781571904978    1.26898269941568   -0.51603386833353
