    23
        -45.37583652  Gyration_radius:  2.28676114284 Dipole_moment: 1.594
 S          -1.47885474454782   -0.70916951117194    0.04117405394215
O          -1.55397409088073    0.65264012101311    0.53363701218526
O          -0.93579737282007   -0.78607938226065   -1.31005636772140
O          -0.78305468319349   -1.57906373493164    0.96879995037516
O          -2.96492086483836   -1.24335223812810   -0.07784345076871
H          -3.26073610071716   -1.27060934382854    0.82666873732407
O           0.58185998238143    0.27156254053045    2.51311016622187
H          -0.09960100257693   -0.25427368921246    2.06482436180993
O          -0.72393078371277    1.59644450276449   -2.55630114184052
H          -0.87893720951987    0.70004992134240   -2.19814299476787
H          -1.59139902271186    1.96796611522488   -2.72185090312679
O           1.91939827166723   -1.78215792549226    1.35355980309403
H           1.00715258954859   -2.10996220748817    1.27528952639155
H           1.89029379623027   -0.89117502907790    0.04799282088426
H           1.85106761879931   -1.10601694607345    2.04808040918786
O           0.56892561280848    2.03609089055230   -0.21530984498307
H           0.39006935028664    1.18798797641996    2.30478594635989
H           0.27697785883952    2.24297115936763   -1.12166233282940
H          -0.23787042452193    1.64306909751848    0.18593478772688
N           1.61423990419718   -0.29664529442127   -0.79588319434239
H           0.69312021830424   -0.65598141355467   -1.14334181955006
H           2.31826793502872   -0.32270771593508   -1.52618018200218
H           1.39770316659227    0.70841210056538   -0.49728536547667
