    23
        -45.37061500  Gyration_radius:  2.45306715079 Dipole_moment: 4.855
 S           1.34604627118272    1.50390817378421   -1.17010543647128
O           1.63155076949308    1.01536191232839    0.18910854836362
O           2.02365404637527    0.74183817698135   -2.19542422895509
O          -0.07621888148949    1.66140688824970   -1.36353110591675
O           1.98992610253686    2.96356691638484   -1.23951426061814
H           2.74984454127396    2.81584173865713   -1.79381985640210
O          -1.11404123633327   -1.98994035085134   -0.48388005617370
H          -1.33486020334217   -2.75045114601681   -1.02348328022462
O          -0.85634344275311   -1.83711192202905    2.21403870288374
H          -1.66165843214712   -2.16395675556053    2.61769394185096
H          -0.93504718576041   -2.01552941327878    1.25339426806764
O          -2.21672606889640    0.55728310070629   -0.31948596379464
H          -2.02901559100913   -0.37768699757860   -0.50816105288338
H          -1.30056177194437    0.80344704125879    0.92755655158058
H          -1.59814598144901    1.05566850027356   -0.89393452748125
O           1.40485364428175   -1.46047480211866   -0.92050447534946
H          -0.16557444738171   -1.77082808451004   -0.70419310285475
H           1.62692723067964   -0.80147294165803   -1.61099571184532
H           1.72045125947336   -1.03047040022223   -0.11654210805970
N          -0.50242396296322    0.78974436036667    1.64488984605249
H           0.40174843716086    0.92561281590191    1.08250293122008
H          -0.50502882254790   -0.15729950210409    2.07532401917977
H          -0.59935627445634    1.52154267102710    2.33906636782589
