    23
        -45.37092321  Gyration_radius:  2.38095680038 Dipole_moment: 5.405
 S           0.84519330077043    1.70786787400557    0.21483309978812
O           1.22845461643970    1.57793193474777    1.59704650327775
O           1.75480382281206    1.02037928187257   -0.69817368550816
O          -0.53778531102214    1.33818415898482   -0.06188287157929
O           0.95037836441753    3.25564396359200   -0.12353880579373
H           1.61086127943756    3.53302410340309    0.50238614045697
O           0.42660429353310   -2.60294223902661    0.41291188687154
H           1.14235286392260   -3.17447809695429    0.69479975687012
O          -2.18865079566684    0.22207059624714    1.73648162714069
H          -2.69565526679284   -0.37736788646330    1.18623501017346
H          -1.63791947475032    0.75585647429206    1.13008895857754
O          -1.50885125343702    0.30446570515932   -2.26624221264655
H          -1.18259755020938    0.83217586893606   -1.49952735741742
H          -0.20895179647856   -0.76149298826744   -2.08016659495875
H          -2.45686159279651    0.22329826520703   -2.15341292599795
O           0.26933632029633   -0.81994120531633    2.28732568653331
H          -0.66544907936941   -0.55137074939201    2.35844383174518
H           0.33360372431193   -1.92186420499356    1.14519562986357
H           0.74331463298707    0.01794516471251    2.12035439548025
N           0.71703568766711   -1.09283948435511   -1.73822414364494
H           0.59313305242403   -1.76757296209511   -0.93096710871463
H           1.20636493582771   -0.21886807275683   -1.34350641593392
H           1.26128522568086   -1.50010552153569   -2.49046041459282
