    23
        -45.37061481  Gyration_radius:  2.45313813201 Dipole_moment: 4.860
 S           1.31802813790258   -1.91733898392355    0.17560521557892
O           1.20997098407076   -1.09086521023165   -1.03825795344652
O           2.45633153099291   -1.56592021078417    0.99524546686060
O           0.05342418185199   -1.96407671690579    0.87091476777565
O           1.61796685249769   -3.39680378307641   -0.34507780396177
H           2.53831338922533   -3.49961874960887   -0.12383978252265
O          -0.42833437440100    1.87494225437352    1.31938881138999
H          -0.28064285517859    2.46653645552055    2.05865549404324
O          -1.16253911440218    2.48296813083427   -1.22228769091697
H          -1.97003057573774    2.99816454698114   -1.19282197134176
H          -0.86287607394328    2.38306922898320   -0.29435022485304
O          -2.03247270253257   -0.37769503123705    1.02753064793958
H          -1.37311287156750   -1.08575457421470    1.18509660558196
H          -1.59780120330213    0.43599379041507    1.33406859665660
H          -1.67986962481503   -0.35169111162939   -0.49954458662083
O           1.91157775299855    0.96554467868578    0.60169301088625
H           1.82880390014143    0.75410554539624   -0.33603771637774
H           0.46776159794423    1.49735555180648    1.09479377417822
H           2.21619597483035    0.11511807813643    0.98149933442272
N          -1.19686499264406   -0.21846350382422   -1.44839274547978
H          -1.14814896454945    0.80697714204462   -1.61654573340575
H          -1.68149328361394   -0.70199216712540   -2.19549850008924
H          -0.20418767576139   -0.61055537059026   -1.33183701628194
