    23
        -45.37061517  Gyration_radius:  2.45301421849 Dipole_moment: 4.850
 S          -1.28463689010015   -0.48495248597356   -1.88555965179723
O          -0.63172699029071    0.81029149549692   -1.63349789011504
O          -0.48744496458590   -1.36544959046685   -2.71046975522917
O          -1.75561397894060   -1.06386453281410   -0.64937671001792
O          -2.57527368830265   -0.14548505984838   -2.76245836110152
H          -2.31882534344924   -0.46876878295369   -3.62067117546514
O           1.66426470903202   -1.07828926444557    1.22397322304095
H           2.31310899896537   -1.76408754924883    1.38824426417336
O           1.79933978991907    1.56608158995597    1.82199817351544
H           1.87449845330479    0.61018653743299    1.61822256140986
H           1.98368779508888    1.65938883721187    2.75773480653057
O           1.63959161111046   -0.66476773708054   -1.35341034605419
H           1.35542604863795    0.25050493821443   -1.46454615176433
H           1.63127879391643   -0.97221653926404    0.23203282426883
H           0.98372335288956   -1.15433998686481   -1.89258287918916
O          -1.03320817204776   -0.87739115538988    1.86746853436995
H          -1.43984038108723   -1.16241666899953    1.02220252872848
H          -0.09940021936159   -1.13671236756351    1.79145068345678
H          -0.97550895448486    0.60754048548495    1.37074692509159
N          -0.73421985743134    1.51933991797292    0.85871582405334
H          -0.72548492263908    1.27660134448278   -0.18682348635009
H           0.22453691582170    1.78613710737421    1.16166062765999
H          -1.40827210596449    2.25266947728333    1.04494544078343
