    23
        -45.37092504  Gyration_radius:  2.38164650464 Dipole_moment: 5.423
 S           1.60262970970027   -0.78960808242397    0.67824376583488
O           1.15784976367436   -1.78504181201680   -0.29409762728893
O           2.54493320202544    0.15114424412881    0.12967503082165
O           0.46150493689683   -0.17678174668888    1.34740955004433
O           2.38366703997235   -1.58355927662749    1.80983177110497
H           3.27409299235686   -1.54731151228983    1.47706048962886
O          -1.08984998485090    0.90357134775136   -2.26733693965055
H          -0.87533980968362    0.93873518789328   -3.20067180399285
O          -0.00131728788117    2.46703245839014    1.37347469840140
H          -0.95918971470861    2.49919395231767    1.39177741210767
H           0.24668658927891    1.52753322896489    1.48260975680161
O          -1.97625803104533   -1.12324003742979    1.52966074177293
H          -2.48361651438264   -0.50454240269923    2.05683917005955
H          -1.79006309716145   -1.32670168420722   -0.13701082314943
H          -1.03428772437605   -0.83881402353888    1.59838144347667
O           0.98827079078367    1.93455225715936   -1.11133053128341
H           1.65164260088759    1.29766055853142   -0.78131506665413
H          -0.30622030037561    1.32781813215196   -1.80418870350208
H           0.68928803293032    2.39848198274425   -0.30757468891379
N          -1.28031229885777   -1.43080008912895   -1.03950077231233
H          -1.28057072763857   -0.51458519800241   -1.57115714835828
H          -1.66428485304681   -2.18865911753054   -1.59276155743957
H          -0.25925532448137   -1.63607835747249   -0.76801814749807
