    23
        -45.37092289  Gyration_radius:  2.38157023267 Dipole_moment: 5.373
 S          -1.55098062795884   -0.36512392542755    1.06391483197214
O          -0.96232898389413   -1.69289990032353    0.90974302369091
O          -1.13130907093252    0.30227129992507    2.26931242790129
O          -1.37070175878521    0.42127209360036   -0.15074470881371
O          -3.11770812226734   -0.57913743178635    1.20709466911335
H          -3.21242716873840   -0.59580001339757    2.15344158530242
O           2.66551170880694   -0.17913846543338    0.06754005171843
H           3.34346830816779   -0.53308554329741    0.64498869470595
O          -0.12563870378395    2.79728403756516   -0.22463486481691
H           0.29667788356277    2.76894857920443   -1.08472566554671
H          -0.69948630963248    2.00735446275394   -0.17154894763745
O           1.24755316136773    1.33477202680182    1.62137439908301
H           0.44355958520321    0.92432802335933    1.99528887681159
H           2.12343850649598    0.43502161563430    0.64870317953194
H           0.90582163372730    2.07488827554399    1.08628878795957
O          -0.84719889017157   -0.45782808452672   -2.56427623179864
H          -0.82622454650198    0.30182050583760   -3.14784145778998
H           0.34933915873172   -1.33263586034648   -1.75203714821764
H          -1.19453648851067   -0.13390818922028   -1.69989436031724
N           0.82318215296548   -1.78494894634619   -0.94229167985598
H           0.08506509389143   -1.81476027767919   -0.15946699102756
H           1.61866985428598   -1.17829709300566   -0.59380221680707
H           1.13625364393610   -2.72039718940374   -1.17642626517183
