    23
        -45.37092419  Gyration_radius:  2.38084013282 Dipole_moment: 5.420
 S          -1.82386142027485   -0.52622851521635   -0.24459622422554
O          -1.19600896382322   -1.77016853605315    0.19371351027762
O          -2.40990225570797    0.22193285801582    0.83741223335956
O          -0.91161102753883    0.24339223215239   -1.08207078046428
O          -3.02836722151160   -0.93911449358702   -1.19327858466287
H          -3.74855459009124   -0.96608947440442   -0.57239226912889
O           1.89209604863725    0.16605281016533    1.87668689360289
H           2.01575107858474   -0.07952792706181    2.79470318980530
O          -0.14387905660920    2.75802317460777   -0.54118576257783
H          -0.53404791501903    1.90300500267555   -0.81076188222603
H           0.75659990851808    2.76152224134942   -0.86997480719741
O           1.18509484901398   -0.63381453851506   -2.38740628798676
H           1.55384629369181   -1.32744317833961   -0.89153771767116
H           0.31731935052188   -0.33032710288118   -2.02994336431076
H           1.55026022716236    0.10716005021326   -2.87286957401972
O          -0.31889400745703    1.51965906351608    1.88151616020493
H           1.05275471770603    0.71707643346469    1.86539492937164
H          -0.25208819273299    2.19982504683416    1.18593795206119
H          -1.12741094491523    1.02350961575684    1.64799012929569
N           1.37346147120422   -1.69183673408204    0.06743094804381
H           1.82808726725143   -2.58641617147176    0.21199061096472
H           0.30397162904658   -1.79137501710307    0.13896927231357
H           1.66538276418256   -0.97881683998292    0.79427142522435
