    23
        -45.37092403  Gyration_radius:  2.38088722127 Dipole_moment: 5.418
 S          -1.72397327222359   -0.82054602840516    0.14304418529573
O          -1.95211916136162    0.21950083429845   -0.85698136678200
O          -1.40292145919348   -2.09942366345668   -0.43593843152192
O          -0.77736831774667   -0.36393272166007    1.15360898898469
O          -3.10118290704458   -1.02036892424410    0.90786253088104
H          -3.48704162990278   -1.73055953850341    0.40624768250052
O           1.94826837091868    0.47202078637996   -1.76708506816572
H           2.10563208425321    0.36072211019269   -2.70584184085745
O           1.52710972220117   -1.61677767194658    1.72317879517775
H           2.10098722023609   -0.87979767581168    1.93882690948804
H           0.62848800408919   -1.24635426224771    1.61723047307409
O          -0.13606528170946    2.10809475885922    1.74274895329541
H           0.06080207434070    2.22647825562826    0.06855816345961
H          -0.48488908611085    1.19179159139944    1.63485201824596
H           0.48091206353791    2.07688725377140    2.47513709657394
O           1.20725445849808   -1.88143717637849   -0.97168208348616
H           1.68779889960570   -0.43977508390294   -1.43685939130244
H           1.51902257562125   -1.99716375826604   -0.05502159435984
H           0.24405633041983   -2.03371725023230   -0.91367082827267
N          -0.06589430085103    1.96882545182499   -0.93261775786580
H          -0.88930946201834    1.27545512229275   -0.94753421274554
H           0.78305366355842    1.44570339131629   -1.28975401027526
H          -0.27262058915481    2.78437417912346   -1.49830922139035
