    23
        -45.37061497  Gyration_radius:  2.45301068721 Dipole_moment: 4.857
 S           0.52455870045830    2.21567829694103    0.50833876893512
O           1.60901573222555    2.17563795455685    1.46413276302575
O           0.85774607153783    1.55220120077220   -0.76320973687860
O          -0.74795181509431    1.74834769112345    1.00554364402615
O           0.34368936290476    3.76013085110683    0.14518026086902
H           1.13463004730457    4.14177844307349    0.51318947848095
O           0.11201662280328   -2.05120956031604    1.10290462517516
H           0.37232886184567   -2.64139695884568    1.81157547139900
O          -0.05929472853914   -2.56537455063455   -1.55678061993656
H           0.07542602319687   -2.48052192170284   -0.58953036382236
H          -0.62913477352987   -3.32493438606688   -1.68588349832240
O          -2.13915281059164   -0.46113106251201    0.73368362409591
H          -1.48351724914827   -1.10839732504028    1.04376153334523
H          -1.79607946215849    0.40525585507175    1.03818785713601
H          -1.62603492345626   -0.18412627996632   -0.72087706736968
O           2.04668453924612   -0.32270712382556    0.81177491069346
H           0.83705559838962   -1.36790161494699    1.04296453707475
H           2.00362755321879   -0.04145009687892   -0.11019541471037
H           1.98374844957149    0.52863209254009    1.29304767706057
N          -1.02047000477503   -0.03081941505967   -1.59346492342843
H          -0.25121961405176    0.65856496393920   -1.30103068080939
H          -1.55436351554463    0.34449445771120   -2.36862944115709
H          -0.59330867581461   -0.95075151104155   -1.82468342488156
