    23
        -45.37583697  Gyration_radius:  2.28650088029 Dipole_moment: 1.598
 S          -0.52808895191058    1.51756007399798    0.33907513031280
O           0.92990141833448    1.49845667941404    0.31216773438990
O          -1.11324163772675    1.04200941633916   -0.89949582438440
O          -1.07074755915561    0.82513218407935    1.49127623191118
O          -0.92025768421153    3.04512430179004    0.48317221952597
H          -1.86445494912436    3.01815785315260    0.60193885593825
O          -2.13274657995957   -1.44031392069130    0.29636194762470
H          -1.93158378430067   -0.52886663518162    0.56155785132657
O           1.99110100304987    1.05338653732232   -2.12749529920713
H           1.66710577488590    1.32564122916096   -1.24624117413515
H           1.80520060185349    1.78707296637332   -2.71496316948875
O          -0.42228108889205   -1.67642223159682    2.38726178611491
H           0.71118382493927   -1.46831930233783    1.30517404846970
H          -0.66030901131872   -0.73680494006344    2.46807137284432
H          -1.14093254853509   -2.03918614465527    1.84332209811094
O           0.25323777713327   -1.00853071419086   -1.85264605464852
H          -2.07385826945869   -1.45805132640853   -0.66084767940349
H          -0.38340191752378   -0.30400850716269   -1.59819757007038
H           0.97330353862284   -0.50366697549476   -2.27213180149401
N           1.34832000778720   -1.10617686039880    0.52748246374740
H           1.36094716262555   -0.06044473839079    0.59648553631567
H           0.91644656854011   -1.29128753223239   -0.43436274024750
H           2.28515639154440   -1.49046131346836    0.59303402099530
