    23
        -45.37092214  Gyration_radius:  2.38447757667 Dipole_moment: 5.266
 S          -1.11050971451533    1.00613051311878    1.18233090016239
O          -1.12959314638756    0.05336435925953    2.26239706729182
O           0.10330023275735    1.81786531978218    1.15747467052321
O          -1.37077185271456    0.42836401344482   -0.13107099998407
O          -2.31561689686423    2.00220677101969    1.45857383714308
H          -2.39335580621007    1.93378275960133    2.40414363627188
O           2.34922587010818   -1.30362260720573   -0.06619578324543
H           3.08736695256241   -1.45781756095383    0.52531311246148
O          -1.71220780770322   -2.20415100049472   -0.51585911810776
H          -1.45228581362557   -2.31590826518495   -1.43150985050917
H          -1.72369780811065   -1.24128816756081   -0.34486937210759
O           0.28684827837691   -2.01419028283700    1.33313561520479
H           1.53941356775182   -1.60624253824550    0.44463760494628
H          -0.15926776959387   -1.28677308573374    1.80928214148350
H          -0.40429793756727   -2.36254723918936    0.74105382533666
O          -0.37626537605864    1.17857054744917   -2.43851503588963
H           1.07742733056776    1.15774777888532   -1.58561964559078
H          -0.72480153592398    0.57942662710979   -3.10007233182231
H          -0.87015417113138    0.99005126847376   -1.60570156905611
N           1.70372454443964    1.16728536319792   -0.75221443999620
H           1.08245819132619    1.48843995295873    0.06504285921776
H           2.48147445514454    1.80407751569395   -0.88436351184752
H           2.03158620336804    0.18522795739498   -0.52739362189062
