    23
        -45.37092359  Gyration_radius:  2.38152968739 Dipole_moment: 5.392
 S           0.64741430197859    1.40295684280371   -1.13510995146975
O          -0.76766152902895    1.73918507479305   -1.00066823962992
O           1.48094237667632    2.07479763682754   -0.17169084271673
O           0.83037688213699   -0.04279881840053   -1.18200187845683
O           1.10554936770172    1.93861081161433   -2.55777497676611
H           1.44374738375139    2.79747187390537   -2.32797132075982
O          -1.13780026809023   -0.39567196196071    2.38606196029949
H          -1.49612267630266    0.12972701530617    3.10295660347167
O           2.36053859711955   -1.41943198382347    0.54021855489627
H           1.92368270914700   -0.90524312061438   -0.16745591209868
H           1.86827682947045   -2.23761859164901    0.62472226555981
O           1.23913549650103    0.57220057594238    2.02579839808012
H          -0.20333331513638   -0.05214999222270    2.25352128059044
H           1.81460195658501   -0.15636919311662    1.72746582761254
H           1.32275255925771    1.24227374415638    1.31963788682034
O          -0.96386910833304   -1.86542385784263   -1.75687441214046
H          -0.52337371359425   -2.71626214738159   -1.74455236930347
H          -1.88367272746796   -1.00854372175938   -0.62606615493337
H          -0.25331671957734   -1.18441696074835   -1.69271635121602
N          -2.16824096240024   -0.19547069628299   -0.04090538632551
H          -1.64100427462053    0.64938053091171   -0.44952339079978
H          -1.82822265794133   -0.31982536864745    0.95472083293646
H          -3.17040049780575   -0.04737771178834   -0.08179242365995
