    23
        -45.37092442  Gyration_radius:  2.3810438311 Dipole_moment: 5.421
 S          -1.90325528864556    0.00850271391750    0.20669150705547
O          -1.96983076319126    0.50662670388764    1.55620611792742
O          -1.69040794103754    1.06248059415245   -0.78217665971101
O          -0.95108136405964   -1.07859936006765    0.01364604605437
O          -3.33069779134484   -0.61574409922475   -0.10039835510275
H          -3.88439549512824   -0.09570815511428    0.47224894322955
O           2.14188472307345    1.57010142608534    0.30434322529318
H           2.33424533437534    2.48281139970758    0.52433282834564
O           0.75240129273073   -1.93085860280250    1.90469754637773
H           0.03900380999415   -1.71795212202323    1.27089374640625
H           1.51445795946664   -2.18387942166322    1.38104458998589
O           0.41441937143554   -1.64243920779542   -2.15137631694093
H           0.92033103276598   -2.43612614234533   -1.97220041164666
H          -0.20561569776587   -1.53160235808991   -1.39228228678113
H           0.78340215182151    0.00560628736443   -2.08577318882320
O           0.60312131637534    0.77203478851832    2.23195788131997
H           0.77784595714396   -0.17584248095939    2.37987134220053
H           1.56928908430382    1.23588775902938    1.05846113761936
H          -0.35776170919796    0.81007437232026    2.06001948661443
N           0.66589416540289    1.00458309753108   -1.81574136054287
H           0.78854611504592    1.61736545349021   -2.61407801669978
H           1.32348153608274    1.25251197353282   -1.02318104341783
H          -0.33527779965572    1.08016539054337   -1.42720674876852
