    23
        -45.37705572  Gyration_radius:  2.29117036747 Dipole_moment: 4.736
 S          -1.13951260683235   -1.23212966403248   -0.42827113648453
O          -1.00373559685091   -0.63162969316138    0.89791188697958
O          -1.10746324932388   -0.19207587710838   -1.46376178411645
O          -0.19870711247446   -2.28296619090094   -0.68758224630584
O          -2.59920109131887   -1.84159832605857   -0.44839099188703
H          -3.03853615203433   -1.34201605210861    0.23275957914513
O           1.28500483275790   -0.96505418761870    2.29493653581104
H           0.39744295407874   -1.00229822474956    1.89164739404947
O          -1.80933313506662    2.28742705895495   -0.77094691576768
H          -1.63086289210763    1.36617447546926   -1.05285625883330
H          -2.41693853197079    2.65373277225471   -1.41415718910718
O           2.30160968021652   -1.56244417754202   -0.11495749789114
H           1.51318999972098   -2.06848218982141   -0.39803193670122
H           1.87844084680803   -0.20392142250742   -0.67097814520730
H           2.18107084231495   -1.46472235885295    0.85298710257465
O           0.14095546049502    1.78110118081510    1.07306226838428
H          -0.33752344094498    0.93180661449331    1.17589945288908
H           1.37858352733076   -0.07295366372240    2.63721439088968
H          -0.50692587020085    2.35080367078700    0.63365506486575
N           1.34278567307313    0.67816940698888   -1.00238046290354
H           1.06065754566719    1.25591470666451   -0.15735388595437
H           0.43436006243214    0.33896009613371   -1.40410917232743
H           1.87463824344102    1.21820203472718   -1.67629604204456
