    23
        -45.38252852  Gyration_radius:  2.2756834137 Dipole_moment: 2.953
 S           0.88723157918497    1.19591187887304    1.19499646572286
O          -0.56099073958755    1.09247701041530    1.34978716703435
O           1.57257709312916    0.14426750355196    1.93420863203878
O           1.29791341174314    1.28466627791003   -0.18872528630616
O           1.31051963482418    2.56432598673547    1.87099733857526
H           1.13240249560612    2.41619550722726    2.79465997046546
O          -1.53854510519773   -0.40968126091424   -1.95067016741368
H          -2.16471742794260   -0.41860647143717   -2.67537194940660
O          -1.66862701710389   -1.25375084244925    0.67350897490017
H          -1.80876123642309   -1.07555303760345   -0.27384545486977
H          -1.42395874191390   -0.38630355512061    1.05603168779109
O          -1.12495726773925    2.02383679398526   -1.06082604296420
H          -1.20044715377246    1.82377773279526   -0.10859555325019
H          -0.16651461403983    2.09972372050736   -1.17403605709917
H          -1.43964807325727    0.54490488937298   -1.67678267828395
O           1.16418156253921   -0.92291915146085   -1.70677838788881
H           1.38164607010981   -0.06235315393137   -1.29571869457945
H           1.08300592877388   -1.75378434452787   -0.35103047537974
H           0.23649631939806   -0.83515230171907   -1.99017466209467
N           0.83729726543140   -2.00562173480444    0.65516155471310
H          -0.22194618346424   -1.91285351559322    0.73465902146475
H           1.23824568094069   -1.23327796212397    1.25983307334856
H           1.17759650875848   -2.92022997968614    0.92871153348451
