    23
        -45.38252837  Gyration_radius:  2.27573284437 Dipole_moment: 2.948
 S          -1.86737711944369    0.35518182831638   -0.17850306505735
O          -1.69374269777912    1.76413227802165   -0.50540878320870
O          -1.27764593874932   -0.50139001946566   -1.20349315313197
O          -1.42499124815777    0.01808410632707    1.15633120144999
O          -3.42668440234197    0.07883045976914   -0.21114802085504
H          -3.69183573498217    0.42213365925032   -1.05890545421203
O           1.89314342696572   -1.58529841140595    0.49457805492907
H           2.50758507678455   -2.29883306928418    0.66983429445715
O           1.31442586061603   -0.09108937255235   -1.75289441525687
H           0.35802979486752   -0.30076853169045   -1.75274698596841
H           1.69680048625643   -0.68010024961448   -1.07787140299483
O          -0.59003711569396   -2.43321791240301    0.46712833605854
H          -0.98127563905327   -1.87734019412015    1.15638584433562
H          -0.87092453353442   -1.97372513219373   -0.34686569188843
H           0.98154815417719   -1.99115988869821    0.50287983267803
O           1.07704888424577    0.66221137012351    1.87679158191625
H           1.08861227141588    1.66605666123401    0.64128890448301
H           0.12304926782255    0.44975082418667    1.83683090144458
H           1.52342514497839   -0.13596398838336    1.54174910119578
N           0.89054966916825    2.06225408352722   -0.32831464123361
H           1.20853780973643    1.31913101739566   -1.02362750624868
H           1.32596016919531    2.96407225560419   -0.48404434750275
H          -0.16420159652257    2.10704820603837   -0.41997459538088
