    23
        -45.38252845  Gyration_radius:  2.27572120498 Dipole_moment: 2.950
 S           0.47904170529070    0.33808703194998    1.81685217735953
O           0.69446518580525    1.43881450588851    0.88196347863614
O          -0.89182296808053    0.32574347023662    2.30950403636747
O           0.90973276336636   -0.93763939761812    1.28947996789953
O           1.40078890891226    0.63276498956744    3.07087704168312
H           1.00835518577421    1.41210524439304    3.45230593119888
O           0.64691479284387   -0.37955917362869   -2.40371696234086
H           1.03164625522873   -0.47447124220765   -3.27571933422872
O          -0.94877804552131    1.54504503925156   -1.23395058796765
H          -0.34361378929845    1.71462316774302   -0.48315569650626
H          -0.44172848320009    0.97044066188798   -1.83518135381015
O           2.47208439555452    0.15277783253957   -0.59508418872053
H           1.99594043842014    0.87678557301743   -0.14592974904543
H           2.34232593952155   -0.58395855678558    0.01934026627154
H           1.40293181830617   -0.18130719265557   -1.78321093766227
O          -0.57322682145683   -2.09919794678820   -0.62029881658286
H          -1.75367391903315   -1.12372874039679   -0.18492039758061
H          -0.16995267146248   -1.65917751069258   -1.38993834432271
H           0.02285288596924   -1.89077381492690    0.12675111522468
N          -2.25126045462274   -0.24609719822225    0.15925218366810
H          -1.92951613722625    0.54682312924164   -0.47690734809848
H          -1.84431506006374   -0.03009624098515    1.11352552379989
H          -3.25919190502920   -0.34800363080193    0.18816200476808
