    23
        -45.38252923  Gyration_radius:  2.27572584923 Dipole_moment: 2.964
 S          -0.91365587054971   -1.09718419280385   -1.26705103221816
O          -1.67959703088180    0.01569387326127   -0.71383791890551
O          -0.10831757844312   -0.66940135408626   -2.40318229033254
O          -0.15513662026080   -1.80957855463360   -0.26279694309189
O          -1.97260037364448   -2.12856779711172   -1.83629720068631
H          -2.34863428024375   -1.66724252818122   -2.57964213718684
O           0.32430258049831    0.82010508157151    2.35941292784650
H           0.31249932535214    1.06557248451347    3.28515770007611
O          -0.27781810357851    2.17593945810378    0.03173606820921
H          -0.94188482423397    1.52644868884423   -0.27786268643224
H          -0.06910187168188    1.90135435367062    0.94265875059431
O           2.03376217721060   -0.64103728191978    0.75632727707684
H           1.34766544870742   -1.25951458500740    0.43449169085479
H           2.00065138532902    0.33327354496883   -0.50199390960935
H           1.59814001810915   -0.13333814990173    1.46421037492901
O          -1.60476129801435   -0.86193515461079    1.78062097117662
H          -0.43341718051908    0.18416488069083    2.22768165655603
H          -1.91820605057354   -0.42052126540626    0.96869034885966
H          -1.09729854138732   -1.60426183123571    1.42156561835821
N           1.61358664896782    0.94036909794290   -1.28813948301839
H           0.94606024588770    1.63275562332912   -0.82796353158413
H           1.00482258838869    0.30603221355618   -1.87969575860748
H           2.33893920556392    1.39087338443926   -1.83409050286207
