    23
        -45.38252859  Gyration_radius:  2.27572999872 Dipole_moment: 2.953
 S           0.31067534935156   -1.48887745921448    1.15411026888780
O          -1.10063277049380   -1.73930033359411    1.41410614604865
O           0.63248970250071   -1.69274143745490   -0.25544244893782
O           0.76741622063895   -0.21113499246686    1.65404494555591
O           1.11441244537153   -2.59182385524137    1.95815844018691
H           0.70018010823281   -3.40528459149581    1.68697072215235
O           0.86479253121509    1.85474369049794   -1.46758916731597
H           1.32861125609596    2.48764626145646   -2.01687433402534
O          -0.80051145539119   -0.27488495344930   -2.02312440405918
H          -0.24882277511512    0.52772595735116   -2.04057910599578
H          -0.26634457807055   -0.93298054136499   -1.53297845859801
O          -0.54793499707054    2.00202048027797    0.90118009573735
H          -0.06611227254370    2.16932867756658    0.07148559313774
H          -1.74729073493531    1.04656013875224    0.47252405282079
H          -0.02161686667792    1.31801109852272    1.36161956008937
O           2.51919876053845    0.15906546470682   -0.33929171116101
H           2.31752919645836    0.30155542190910    0.59686285955028
H           2.01633551981721   -0.65478596197001   -0.53256959107923
H           1.56199873804125    1.25488768577645   -1.08027391845992
N          -2.25984950541080    0.19030699695675    0.09799161001091
H          -1.86536358119520    0.01022246994445   -0.87617176270805
H          -3.26760130612774    0.29774246004732    0.10466505884687
H          -1.94155899523408   -0.62800266751540    0.69117553931848
