    23
        -45.38252860  Gyration_radius:  2.27574405833 Dipole_moment: 2.953
 S          -1.66942177144542    0.01384085037201   -0.92639220094700
O          -1.20089441325577    0.86623773957898   -2.01082755330436
O          -0.95656715157267   -1.26036267526123   -0.91033451148155
O          -1.66911227935109    0.67248418303482    0.36100436840007
O          -3.18227704817890   -0.32673572262640   -1.24906726925158
H          -3.14831454555889   -0.64458785289060   -2.14608644553942
O           1.42029220869097   -0.72566211943184    1.94918096299152
H           1.84728066744895   -1.10088997818968    2.72008734178594
O           1.71735654841522   -1.12815546007934   -0.76498318085627
H           1.80464909850203   -1.09701860519324    0.20469945118222
H           0.77780479090254   -1.35393754521989   -0.92284856773379
O           0.60483077847319    1.80949580708770    1.21666384763735
H          -0.32185804698591    1.55557507862334    1.03332731632736
H           0.99987603252045    1.02306335137019    1.63380845436242
H           1.10882039799839    1.74855115874539   -0.29233408565006
O          -1.05771627304598   -1.55652506714091    1.71618415411698
H          -1.53427349580455   -0.71383599676722    1.71809920681891
H          -1.02986174239001   -1.77051245764787    0.76438596809488
H           0.49107032670852   -1.08946813314215    1.93767912162635
N           1.24835727332754    1.39225324098385   -1.28723673357354
H           1.62935872067689    0.40045065725088   -1.19687293462710
H           1.84127931711727    1.99629578505418   -1.84466152371076
H           0.27932061678669    1.28944375148390   -1.70347518669651
