    23
        -45.38252823  Gyration_radius:  2.27575388199 Dipole_moment: 2.947
 S          -0.83063497228440   -1.70757842362216   -0.19839256263112
O          -1.72799464355173   -0.55565679641606   -0.18911999014945
O          -0.29743344835873   -1.94932586326748   -1.53236946634512
O           0.19137833306808   -1.63033853953946    0.82165884770338
O          -1.72081004446487   -2.96746420368431    0.16107181518237
H          -2.29973993629392   -3.04785189918391   -0.59072135600843
O           0.47029353298311    2.06455947483698    1.36304628105830
H           0.53729004177206    2.79976485586703    1.97335175160590
O          -0.71694077481679    1.75079578424495   -1.10910557684275
H          -1.26743652174410    0.98559481861538   -0.84430918276602
H          -0.33173979440293    2.07815329420259   -0.27650782155924
O           2.20774115892964    0.10630771521756    0.48405884243358
H           1.62780989867833   -0.64315943493117    0.72652156950375
H           1.79918566055643    0.15819125004567   -1.05388440263788
H           1.77784510342852    0.88894363593814    0.87305040424909
O          -1.12818349058480    0.19403512309100    2.27539662168324
H          -0.53199087711238   -0.56848998950842    2.28556006046728
H          -0.14957754106294    1.40561072576242    1.78412378762098
H          -1.63111066223254    0.04657164210453    1.45199950197050
N           1.18890010951388    0.15607328535059   -1.92784697456604
H           0.46191704937150    0.92276612907642   -1.78444551340202
H           0.64978108904504   -0.75607235855910   -1.91037002840142
H           1.72145070956615    0.26856977436323   -2.78276662817222
