    23
        -45.37890819  Gyration_radius:  2.28820152539 Dipole_moment: 2.664
 S          -0.68841873146598   -1.45127650928563    0.43657577651015
O          -0.94480993172012   -0.14265430659484    1.01115323664998
O          -0.63813950692445   -1.37526506077734   -1.02656471834040
O           0.46271109791530   -2.12182945104412    0.98992656101057
O          -1.94139134329696   -2.35537564100798    0.78947627499887
H          -1.52641522729322   -3.19264683747169    0.96911730505694
O           0.93468960772200    1.21393844790942    2.38529767954805
H           0.19077636092692    0.66503103933970    2.07355980132763
O          -2.19706042622253    0.56660681193410   -2.03120661712676
H          -3.10946717615179    0.39386808269754   -1.79535428234323
H          -1.68749778775748   -0.21183672983095   -1.72745928066427
O           2.49236516019796   -0.39421527529752    0.89716288119305
H           2.17450997195557    0.23830651786143    1.57405448047840
H           1.91246175688032   -1.17522740315487    1.01297881847531
H           1.93378100456043    0.13579084280953   -0.43286624944893
O          -0.56539779913317    2.05840529094358   -0.47254819134260
H          -1.21971643271044    1.87761529293592   -1.17250283230694
H          -0.79542098583692    1.39851113586214    0.21179281504929
H           0.73578482339719    2.11032571165328    2.10587115694470
N           1.30682733740228    0.39130450102754   -1.27495151603215
H           0.70459555995905    1.23285548685354   -1.02602863777708
H           0.62558005551483   -0.40035239426009   -1.37225185834325
H           1.83965261206833    0.53812046687578   -2.12523260354477
