    23
        -45.38252826  Gyration_radius:  2.27575865212 Dipole_moment: 2.947
 S           1.82444522565276   -0.03333629779630   -0.56197026082426
O           2.05210764918994   -1.41444141986165   -0.15822461203356
O           0.82768157778156    0.04852638219237   -1.62590325842333
O           1.53364889379556    0.84727784504108    0.54754693525276
O           3.18639779430877    0.47824332562247   -1.18830682537092
H           3.39694410340630   -0.19198986064991   -1.83115969325716
O          -2.18330617851816    1.22066625078303    0.28964300604884
H          -2.95196508864645    1.79183127093794    0.30934038353515
O          -1.55516069258518   -1.07014962482417   -1.11649445213879
H          -1.98305245516791   -0.30432629766675   -0.69317403865921
H          -0.72901488186453   -0.71204991743899   -1.50112079743726
O          -0.13919121039341    2.39061617948134   -0.86742447418434
H          -1.45981402767015    1.73883583730232   -0.16187498458058
H           0.51950152677365    2.35223673637770   -0.15913106135688
H           0.12931641594635    1.64257096914751   -1.43389683777745
O          -0.47467025148297    0.19923509379763    2.20351062840286
H          -0.37924878901180   -1.27592998948581    1.61233399156078
H           0.34169922554881    0.53847299904741    1.78479036140872
H          -1.20077487436031    0.61175159790436    1.70227028329107
N          -0.23496959143713   -2.06573808233103    0.91120962467049
H           0.74779374593130   -1.94940420171315    0.53230496536886
H          -0.88555953070530   -1.85873811712946    0.09219864896437
H          -0.38280859649385   -2.98416067873544    1.31353247754329
