    23
        -45.38252853  Gyration_radius:  2.2757485922 Dipole_moment: 2.951
 S           0.42432486091280    1.60464866831265    0.94347090755416
O           1.78765180474814    1.68804041608800    0.43682060319414
O          -0.54952768001588    1.73529779064018   -0.13665393869333
O           0.19090549671753    0.44203545710851    1.77111027984226
O           0.21975540149953    2.86433847111276    1.88173007641592
H           0.49762458659638    3.59222660205769    1.33417468309528
O          -1.62023023781404   -1.83728064561753   -0.58345638544966
H          -2.34285536886985   -2.44576482815764   -0.74164769317693
O          -0.31326420020484    0.00427472094166   -2.17041454353232
H          -0.47700967562716    0.76393113100809   -1.57477648049566
H          -0.85505398521674   -0.71789561954402   -1.80464546580345
O          -2.34965414911051    0.14595305269896    0.97228762773563
H          -1.95496222878467    0.86852969391742    0.44824920496080
H          -1.98049084340208   -1.12202838564747    0.01192659772956
H          -1.71431109700414    0.05370366973493    1.69686136889505
O           0.78043004586585   -1.97783514870287    0.77495404274841
H          -0.06519819875688   -2.14668774729044    0.32224988047225
H           1.66495263068856   -1.22536352619620   -0.31408987890122
H           0.61036551314881   -1.19602050688008    1.33766941486115
N           1.97916079597312   -0.47647549527740   -1.00454347861491
H           1.16113929653834   -0.32504285358316   -1.67146419798038
H           2.84145357402653   -0.71411925103843   -1.48118760101347
H           2.06479366808963    0.42153433431395   -0.44862502383594
