    23
        -45.38252845  Gyration_radius:  2.27573183681 Dipole_moment: 2.949
 S           1.68048034851669    0.90258927500935   -0.07671136192740
O           1.32110202352851    1.73465896307679   -1.21721837222524
O           0.84393425202509    1.20395119001024    1.08149394632094
O           1.72016185903762   -0.50913859261090   -0.38746629235368
O           3.15799755869581    1.30950149567290    0.32377895975598
H           3.11004811856797    2.25733593467673    0.40231121868674
O          -1.52400104030859   -1.71123621615670    1.04385208882999
H          -2.00118553029037   -2.36581159725210    1.55497008988715
O          -1.80599631500799    1.01526083283022    0.71925619460480
H          -1.90928877594336    0.06862349075682    0.92425688882765
H          -0.89067059494630    1.23019725516412    0.99245260327816
O          -0.44557516236246   -1.63701058708007   -1.49752466100432
H           0.45466407818000   -1.39020719690761   -1.20511638619260
H          -0.92543386232714   -1.84452859690370   -0.67578208586694
H          -0.92282152526507   -0.16432841688326   -1.86912287726143
O           0.86288874401459   -1.26218959150050    2.03740363869280
H           0.83318830171942   -0.28738549196937    1.99943312897973
H          -0.63575550918402   -1.60294257056605    1.48560335725547
H           1.42168270579153   -1.47558357943466    1.27628322612853
N          -1.07732266484027    0.88742867037594   -1.79041474958841
H          -1.55717694428333    1.04793911878659   -0.85187402602411
H          -1.59570324003787    1.27108865359315   -2.57223621339666
H          -0.11521682528644    1.32178757731701   -1.69762831540717
