    23
        -45.38252836  Gyration_radius:  2.2757544244 Dipole_moment: 2.948
 S          -1.80511904264198    0.07836966191579    0.61690908505414
O          -1.21869969540413    1.34535056903644    0.18905069246849
O          -2.35351878306235   -0.65724647568458   -0.51462834884710
O          -0.90570550567167   -0.70919523112529    1.43048190574433
O          -3.03363325742432    0.44808586141503    1.54585285101237
H          -3.64688869897447    0.85879746110995    0.94411735680548
O           2.44463133760586    0.52363106777927    0.30085568357100
H           3.32787033650610    0.81755623590661    0.52649648099186
O           0.67428781482891    1.20392102471637   -1.70452407447245
H          -0.05612697988265    1.44311196616238   -1.09794696597151
H           1.44531292026719    1.07353986770209   -1.12371519153119
O           1.16705103624237   -1.92403751048868    0.23750782633891
H           1.79872287419875   -1.18383882602634    0.27866837597509
H           0.42847467269507   -1.65425751376208    0.81935351070837
H           0.39828859756879   -1.70737585173558   -1.13967458408341
O           0.67098713570356    1.37058853119759    2.03948768523648
H           1.83931838482854    0.88540674660738    1.00693406993282
H           0.00355869000378    1.67910379778162    1.39766594295766
H           0.29042590498901    0.53166457355813    2.33698407887008
N          -0.21453793240713   -1.25044368010570   -1.88262203248775
H          -1.16454472907160   -1.10710291601039   -1.43556977001691
H          -0.27242898483714   -1.79306037793691   -2.73666484127701
H           0.18227389395320   -0.27256898198867   -2.03501974699031
