    23
        -45.38252848  Gyration_radius:  2.27569022221 Dipole_moment: 2.951
 S          -1.08124751665983   -1.31552380747468    0.86366529018656
O          -1.62606295435988   -0.74400528761105   -0.36458863468025
O          -0.18034083646080   -2.42328067282470    0.57493484082221
O          -0.50228636584800   -0.31874759166637    1.73679427218772
O          -2.30943846881904   -1.93323535589157    1.65022848425900
H          -2.58293376623055   -2.65700670772301    1.09506430957222
O           0.42434841144023    2.38690373701240   -0.68039698490651
H           0.43903031621330    3.31881946153484   -0.90104153426059
O           0.15666744269766    0.08944909666799   -2.18565821675657
H           0.28561398917884    0.99553726409084   -1.85213783287338
H          -0.61499802650335   -0.25098438116368   -1.68840281327615
O           1.84932051225998    0.77328604634391    1.04969182791383
H           1.50574666504020    1.48763415303816    0.48378060950495
H           1.06242592336204    0.42084673895584    1.51169364680270
H           2.03957159766654   -0.45644740903122    0.05660279133012
O          -1.78461023195335    1.72479771513442    0.57148590606108
H          -0.44079038575602    2.22317886800262   -0.21053600679383
H          -1.98269413270957    0.91835500954758    0.05869309496857
H          -1.42673147803051    1.35735690581160    1.39255185229856
N           1.79836679534249   -1.23129125350989   -0.63454132531005
H           1.26945739258877   -0.76318888917358   -1.43334311105395
H           1.09066959663450   -1.85199066168374   -0.14795061429038
H           2.61091552090378   -1.75046296838540   -0.94658984170755
