    23
        -45.38252853  Gyration_radius:  2.27571127127 Dipole_moment: 2.952
 S          -1.38383587944193   -0.25865536485826   -1.28983976289757
O          -1.20025708321913    1.10904709420203   -0.81269125456569
O          -0.47399593163118   -0.56068106762673   -2.38670236537962
O          -1.33987461483248   -1.23466801681324   -0.22369495894087
O          -2.84692236369846   -0.32718451856464   -1.89264222771390
H          -2.79466923367084    0.23706736753708   -2.65797331036439
O           0.73673132120908    0.52066686338321    2.35099588153489
H           0.87202647659534    0.76407396094834    3.26743815594847
O           1.27882945079768    1.78095665921629   -0.04362353451731
H           0.35827883208367    1.73859552564556   -0.37445784501801
H           1.22127003153394    1.49284007277289    0.88511863519806
O           1.03183688841933   -1.80562200589413    0.89174645813914
H           1.70416680311213   -1.14620256015693   -0.39205670714792
H           1.04130229845991   -1.09593614253637    1.55869588230464
H           0.11671667280391   -1.81088274764733    0.54623341042979
O          -1.80586184647826    0.56652288252311    1.70427683294444
H          -1.93395584162865   -0.34349369835653    1.39971598740508
H          -0.24756534062633    0.56259211089753    2.19169312733262
H          -1.71240167432307    1.05010824233725    0.86169069503540
N           1.85446694573953   -0.48628370429013   -1.21552693975020
H           1.82585446302622    0.50119734144400   -0.81418881251189
H           0.99189247251882   -0.57230309833620   -1.82498160194256
H           2.70596715324086   -0.68175518582858   -1.72922574552817
