    23
        -45.36949631  Gyration_radius:  2.26668187211 Dipole_moment: 3.784
 S          -1.03825883621335    0.31611711870521   -1.27013113607117
O          -0.17394717626918   -0.24193768016734   -2.30268866803274
O          -1.21716854212705   -0.58619491836061   -0.15125011221036
O          -0.61241567631630    1.64509670815170   -0.86298986033657
O          -2.46223084654269    0.48315757682767   -1.93918122814004
H          -2.23968776823459    0.91699034091265   -2.75634184869305
O           1.77696890965164    1.13790035323157    0.22894533040473
H           1.02909456063581    1.56008971054390   -0.23724932290304
O          -1.49926205117524    2.26203185720629    1.61731990518083
H          -1.18715082824594    2.15194230692110    0.69912967578190
H          -2.45294356919213    2.17756634371335    1.58632732490810
O           1.96873582985030   -0.92826401950941   -1.16643157480366
H           1.55729353333274   -1.67025692559486   -0.45954575748736
H           1.17460995691494   -0.70540225322570   -1.76636611865294
H           2.05973395117144   -0.05297042671710   -0.59157129572953
O           0.15607033179937    0.12545303219952    2.06572626588597
H          -0.28757946375854    0.94048373559025    2.34981771940042
H          -0.42139786602105   -0.19810214077654    1.34840123162672
H           1.36928036878641    0.79975709189447    1.06445477661119
N           0.80180281146347   -2.43813428670428    0.46937374581063
H           1.02768734965089   -2.17524714761089    1.42206015900789
H           0.80232524443006   -3.44597020517125    0.38798585052693
H          -0.13156023356676   -2.07410616212408    0.26420494793667
