    23
        -45.37890793  Gyration_radius:  2.28808769687 Dipole_moment: 2.653
 S          -0.97852477135033   -1.30979728677002   -0.31405611817164
O          -0.17549751022428   -2.36836124749072    0.24786599034265
O          -1.23578428695199   -0.21228360619639    0.60152519817661
O          -0.43641973873617   -0.81225602133334   -1.58177448629222
O          -2.38510523697767   -1.95485304852597   -0.65697883209311
H          -2.16936396436700   -2.88151638684342   -0.67030976826121
O           0.24421737999197    0.18725054752224    2.81711943986710
H          -0.42020041837504   -0.05117150487558    2.14356575024093
O          -1.30835147813269    1.65165558693089   -2.19851235584652
H          -1.03413001927225    0.72099144420771   -2.07024067751595
H          -2.26143599681255    1.63580763555437   -2.29502142728006
O           1.97930105298737   -1.22248825801570    1.32469859675285
H           1.29657057069961   -1.84215347322801    0.99386447411672
H           1.96859084794272   -0.20154701524284    0.17582474586753
H           1.54102867057319   -0.76529245170408    2.07194305312401
O          -0.10047425388847    2.17692443798848    0.16488694466919
H           0.27001552193682    1.14655094348270    2.83362942489074
H          -0.50451884308794    2.37636200937357   -0.69965859342076
H          -0.62859250536119    1.41547677458864    0.47814348522264
N           1.69567500983059    0.43552044522113   -0.65302242634189
H           0.98747955965777   -0.10586223190739   -1.20578640364852
H           2.49460679195831    0.70028945728925   -1.21873938219348
H           1.16091361798312    1.28075327995741   -0.28896664222438
