    23
        -45.38252849  Gyration_radius:  2.27568973767 Dipole_moment: 2.951
 S          -1.38388900467324   -1.31105908200382    0.10701604914337
O          -1.48876223732683   -0.35696384709009   -0.99331556389064
O          -0.52019877400854   -2.42972878571218   -0.24609969681589
O          -1.02597149872141   -0.68414652557603    1.36001894745353
O          -2.83368788096417   -1.91483785871753    0.31242310647613
H          -2.97766718443133   -2.41411892829472   -0.48559602594173
O           0.78135650363958    2.38492344897569    0.20425018012007
H           0.92939880638096    3.32774061341615    0.28517816731285
O           0.81675474028713    0.63875721178379   -1.93258704840583
H           0.90386084343642    1.39264711890461   -1.32192320700937
H          -0.09168291726261    0.30411304182129   -1.78637133425909
O           1.49575540919514    0.16874877658303    1.68941565742560
H           1.39203270998054    1.05196369215479    1.29221304042357
H           0.58262157521546   -0.16559409877368    1.79564121503445
H           1.88833515567183   -0.76851844598387    0.46377009840469
O          -1.74462000350296    1.76942502327377    0.55880616008155
H          -1.67960725171420    1.14665296218552    1.29715398207760
H          -0.19483391344638    2.24018155688870    0.35290376119655
H          -1.83587490981983    1.16855973565548   -0.20483240938072
N           1.81232269049928   -1.28523901787786   -0.46542461420298
H           2.64150473150269   -1.82390204523537   -0.68782713325821
H           1.58514992068701   -0.54570263879658   -1.19919902717222
H           0.94770247937543   -1.89390191759007   -0.39561428480445
