    23
        -45.37304211  Gyration_radius:  2.28362324587 Dipole_moment: 3.032
 S          -0.69650177649774   -0.87834004903860   -1.34201675165914
O           0.56240321888758   -1.57433153836493   -1.49991922653982
O          -1.24374883158710   -1.03871883991554    0.00379822859785
O          -0.63263438148881    0.51232516947093   -1.75314386795970
O          -1.73411518654497   -1.59212660028516   -2.29981255086807
H          -1.26271667624396   -1.58911749921020   -3.12589926619926
O           1.35392662481856    1.31011600603226   -0.10199560717441
H           0.78431619395841    1.10134447404497   -0.86210277006441
O          -1.68762798552936    2.66937508471746   -0.47685908132026
H          -1.42793537903349    1.89177863762933   -1.00653597206832
H          -1.24021849517848    3.41715856779390   -0.87628772796205
O           2.49811850375516   -1.03384314568019    0.21055086286172
H           1.50212065971746   -1.26527796387468    1.25886385320889
H           1.98804033597852   -1.39952574066059   -0.54454840595934
H           2.37309185316932   -0.06042150040238    0.09728344565054
O          -0.80873268087160    1.13112796789208    1.58972483676135
H           0.73060018776270    1.42248421762331    0.63924146817804
H          -1.21500248872596    1.92158391335869    1.19668338439966
H          -1.18145605453304    0.40842764104298    1.05394903453009
N           0.57013048576815   -1.34189621708495    1.85877066014222
H           0.56441193418586   -2.13624629849116    2.48908184917268
H          -0.20023513101302   -1.40927453024141    1.13135876948694
H           0.40376506911044   -0.46660174662437    2.35981482478705
