    23
        -45.36949650  Gyration_radius:  2.26741790424 Dipole_moment: 3.750
 S          -0.33976617849908    0.82293255644355   -1.41555009392842
O           0.51576730946232    1.96683427639847   -1.12490480943847
O           0.34758441927592   -0.44021420646515   -1.24186182519264
O          -1.59884565970647    0.88637137037324   -0.69169008561704
O          -0.69632057371953    0.92809601820188   -2.95347590249643
H          -0.95409474417545    1.84109270869343   -3.02765936147121
O          -0.77445368156069    0.69316879335583    1.84710200166452
H          -1.27096234382213    0.92050571799695    1.03679249714186
O          -2.72455180963644   -1.55499107160056   -0.38875621143925
H          -2.86502543739947   -1.89873539853749   -1.27179099033674
H          -2.42349143214101   -0.63327979630140   -0.50062318864756
O          -0.36892201226357   -1.78335351113122    0.99200937504026
H          -0.64245807442237   -0.28431931023841    1.77251899512714
H          -1.28825026749533   -2.03894835634679    0.81557377557362
H          -0.07565141350639   -1.41822085834132    0.13560014526925
O           1.45934523759143    1.60157645099627    1.18364228314380
H           1.99882937620033    0.65466964862557    1.00148432242502
H           1.16484597833987    1.89148506095846    0.25115993445191
H           0.55050037042963    1.29678635451129    1.61395572631902
N           2.46281142680009   -0.62632198408337    0.59616027830972
H           1.95134972685579   -0.71614700596597   -0.28484059204392
H           2.12011572565590   -1.34737500812898    1.22099479324510
H           3.45164407066495   -0.76161244644069    0.43415892407512
