    23
        -45.36949650  Gyration_radius:  2.2670125335 Dipole_moment: 3.768
 S           1.45733387338597    0.80089988309891   -0.15981059703834
O           0.91512075347433    0.12025697036371    0.99800259215955
O           2.02237028792796   -0.12346108021339   -1.13504782136850
O           0.51302318718358    1.72378067727151   -0.76789557754232
O           2.66881615086956    1.67369588329744    0.36364804019086
H           3.08850505898124    1.92704987639460   -0.45198678122254
O          -1.42756892326002    0.06449063777032   -1.56782603467117
H          -0.79928285003495    0.80992180537744   -1.50046199569046
O          -1.23133138732580    2.71586599862218    1.04615048733123
H          -0.61232087080245    2.45773097759258    0.33701181663706
H          -0.70133368964524    3.14366804005998    1.71976027005225
O           0.22524604511237   -1.80891131419833   -1.66447654736033
H           1.04538695878306   -1.21121674281224   -1.56005469101102
H           0.08610352041762   -2.23408550623112   -0.65677806439092
H          -0.54932962620068   -1.10301426500584   -1.75193584916589
O          -1.78598415910739    0.03279106925075    1.05752068596657
H          -1.79378543120661   -0.01446976255989   -0.65202830059615
H          -0.81654559973908    0.04901880152926    1.17009981370230
H          -2.03533964795408    0.96090594611390    1.19259585894229
N          -0.05098058692160   -2.50549273834937    0.73539458820394
H          -1.01427363351338   -2.39562516712790    1.03151988928382
H           0.47678656813099   -1.71376523467041    1.11001926833660
H           0.31938400140871   -3.37003474559394    1.10657896921717
