    23
        -45.36949652  Gyration_radius:  2.26741912978 Dipole_moment: 3.750
 S          -1.32624011885661   -1.00771574461005    0.14307946441487
O          -2.03689388150951   -0.17351250294059    1.10427948401752
O          -0.87468832223996   -0.25900367207508   -1.01165908624900
O          -0.26368320812511   -1.77669686132155    0.76999353713297
O          -2.38670515269084   -2.05361021754848   -0.39073243111764
H          -2.77916397312311   -2.35842157347997    0.42084316364100
O           1.39535211360739    0.15717471421446    1.58676736303299
H           0.88587165505836   -0.67363010941511    1.51507988948778
O           1.64642523325108   -2.50579057287912   -1.00164279477699
H           0.98075445278343   -2.33826460116790   -0.30774338454278
H           1.20732336504400   -3.03173593229846   -1.67100276877993
O          -0.51936717968532    1.76459940110977    1.64737769104481
H          -0.42880513277062    2.20020947363075    0.63634684678050
H          -1.23943484997636    1.05104969380177    1.53572326424712
H           0.34970435903403    1.18273543027789    1.75130082730981
O           1.78384198075260    0.23087220735277   -1.03459822264742
H           0.82987988399390    0.06695081050432   -1.16042174466222
H           1.75961692015022    0.28599717894457    0.67611347892381
H           2.17331029002993   -0.64921454658892   -1.15847501743982
N          -0.31111009334484    2.48017665219304   -0.75275241922318
H           0.66279164545798    2.51042844207967   -1.03280087998168
H          -0.79750069763240    3.27969305638565   -1.13563346910650
H          -0.71127927925575    1.61770928383820   -1.12944280151289
