    23
        -45.37304284  Gyration_radius:  2.28348931109 Dipole_moment: 2.993
 S          -1.69556604403765   -0.14469724310133   -0.40090146883042
O          -1.77926882738560   -1.28203807115503    0.48974640200268
O          -1.19910298807445    1.04804649748356    0.28252817135416
O          -0.96365915843404   -0.43109176085565   -1.62140455641938
O          -3.17680682257446    0.20970149561708   -0.82970266511697
H          -3.48576711626585   -0.62891241249689   -1.15538296607975
O           1.37036405360227   -1.19701618838912   -0.49162112131747
H           0.54083343684524   -1.13331362710531   -0.99516329543662
O           0.88682243348502    1.14045288241611   -2.84567190563806
H           1.33189123280714    0.54610051607209   -3.45194382099394
H           0.13078777604294    0.63674171862784   -2.48873577818112
O           0.39212743853985   -1.97426491068106    1.81906586296696
H          -0.51972185622662   -1.95572845324655    1.45502421316992
H           0.94561969821846   -1.93651862334033    1.00158219956502
H           0.48200098625351   -0.56737109893703    2.21292932179198
O           1.43354115660477    1.53917441939409   -0.20860682499061
H           1.58021761233545    1.66157314592237   -1.16135477274507
H           0.46284778895676    1.56323375233168   -0.13527390894701
H           1.65541048311233   -0.27096150505505   -0.38294805428257
N           0.43019276440021    0.54177194668879    2.26058458748657
H          -0.36004401863680    0.79131026795901    1.59701965423394
H           1.27462438917787    0.94941661992136    1.85375516601170
H           0.26265557130738    0.89439062188352    3.19647557051567
