    23
        -45.36949634  Gyration_radius:  2.26658443483 Dipole_moment: 3.779
 S           0.87511018263433   -0.17607072088989   -1.41207734951605
O          -0.17942894123396   -0.85885203684160   -2.15129376690165
O           0.40743403824663    1.03783777312479   -0.77524050507106
O           1.56172706246754   -1.06899173940457   -0.49300676686891
O           1.94282619777769    0.27028543501736   -2.49110503336855
H           2.05534742303573   -0.53073131583121   -2.99230044216970
O          -0.39152751272436   -1.68901005946450    1.22607597345701
H           0.40388849198794   -1.71949709094394    0.65910703313174
O           2.75616575689664    0.29668411304424    1.51323736047321
H           3.35030863988449    0.91965303322962    1.09306863712884
H           2.41061323451909   -0.27243028460072    0.79955938286506
O           0.09614760457169    0.82648895880255    1.90146685800887
H           1.00663195065676    0.72978601620384    2.22316019349509
H           0.22050591335394    1.03510961251459    0.95603576599707
H          -0.30873598559282   -0.82256676488177    1.69665816987108
O          -2.08914147555493   -1.19567540624197   -0.54149381124834
H          -1.48830263394529   -1.51779107714741    0.25956425309128
H          -2.30448597156122   -0.14066048814904   -0.30598357122241
H          -1.41338123231817   -1.13746816135486   -1.30342944483550
N          -2.28991996992952    1.25468942734915   -0.01455335469045
H          -1.39497748330968    1.50276216388550   -0.44238550908116
H          -2.20412223897879    1.41362241106963    0.98296291255038
H          -3.02268307089598    1.84282622150501   -0.38802698510728
