    23
        -45.36949649  Gyration_radius:  2.26714081512 Dipole_moment: 3.767
 S          -1.55334790809650   -0.15246845303696   -0.59820221298939
O          -1.15987095509461   -0.76469657653565   -1.86110216657671
O          -0.95133585820352   -0.80684292732792    0.54526217024025
O          -1.34401895395111    1.28611337546621   -0.60173712918004
O          -3.11359530340578   -0.38223587351333   -0.47239589123394
H          -3.41658987479596   -0.10775442786916   -1.33168620441097
O           1.31867582001428    1.44574316271768   -0.81645048257406
H           0.35990576660256    1.62207377647306   -0.88355680708409
O          -1.08816077835802    2.27712100165841    1.90232258118859
H          -1.22676133658561    2.01981053489133    0.97101528316264
H          -1.89272757148836    2.04225061356937    2.36614509469747
O           1.35994979514483   -0.80977708182626   -1.89528304364969
H           1.48058452690787    0.17183620265257   -1.53898750167380
H           1.53188838658741   -1.43949074934901   -1.00476074703992
H           0.35064672979255   -0.86220896093230   -2.03256136195293
O           1.06245982397466    0.59485411124536    1.68067636955795
H           0.61083667356682    1.36506069002930    2.06111298733026
H           0.32170383382531    0.02907093418095    1.39109935538533
H           1.44961710865792    1.23219305112272    0.14063439080473
N           1.52261681439891   -2.10465039302455    0.25278752385130
H           2.09082899383173   -1.60622019846068    0.92839403289654
H           1.74329546183283   -3.09076154024716    0.28797339075976
H           0.54339880482448   -1.95902025189025    0.50930036854539
