    23
        -45.36949575  Gyration_radius:  2.26828261771 Dipole_moment: 3.717
 S          -0.38186193833317    0.96344091292773    1.31352720901583
O          -0.64250908843355    1.19917455741722   -0.09156727829354
O          -1.32981509995382    0.02794691629633    1.90631820536203
O           0.99612644900974    0.58260194683974    1.57690532841207
O          -0.61919408324676    2.34378915463783    2.04960693758840
H          -0.64173769705667    2.07181597865679    2.96115556835027
O           1.17466073028707   -1.74012304999873    0.25959931263892
H           1.28939296262389   -1.01802252492085    0.90790243046291
O           2.71785682058165    1.60031399407198   -0.24520062080874
H           2.65384794061607    2.55375452863049   -0.18117003186742
H           2.17882299939344    1.24176633688117    0.48526268931728
O           1.10453898566276   -0.02020448313027   -1.75575651768738
H           0.45452906882265    0.50885653416356   -1.25538236832018
H           1.93872528706251    0.44652653247187   -1.58933201617915
H           1.26293659554837   -1.28440209588851   -0.61416597853710
O          -1.29766625581034   -2.04540236303502    0.47380155478374
H          -0.25063678538755   -2.08884305317792    0.38882037253772
H          -1.42351382089901   -1.28779964559450    1.14519798475184
H          -1.62400268188122   -1.60085240069232   -0.48191479996324
N          -1.87990248764567   -0.79918175552836   -1.63025438646785
H          -1.18064175666435   -0.96158016885868   -2.34605173606630
H          -1.69921480903650    0.12422802350026   -1.22989028840155
H          -2.80074134529012   -0.81780385575248   -2.04741157065228
