    23
        -45.36949654  Gyration_radius:  2.26701707395 Dipole_moment: 3.767
 S          -1.45324597888599    0.82465842971843    0.01706804446008
O          -2.25768016261434   -0.29221348165446   -0.46283700529399
O          -0.60274074468794    0.45595929794164    1.13000879492299
O          -0.72519061673719    1.47394035785291   -1.06069610745417
O          -2.48022549803989    1.89092271094038    0.57543400188942
H          -3.11296515852743    1.93698422510241   -0.13381275027259
O           0.93294690304818   -0.47362753375490   -1.84542396029626
H           0.34027189736069    0.30313779715264   -1.82700545678006
O           1.44431778024083    2.80678573037128   -0.14706568991149
H           0.65524021109224    2.40566313339482   -0.55833500404642
H           1.11811464698131    3.44019802812856    0.49323666576703
O           2.00889608307966    0.20034622246172    0.48077093658601
H           1.54086479863222   -0.32046630280900   -1.08000772218971
H           2.27603864647354    1.10971805738190    0.27213403019293
H           1.10897372855214    0.31496348521927    0.84101339174252
O          -0.66079725489766   -2.17987787724604   -0.95116341064646
H          -1.42576435814771   -1.52105793614552   -0.80506353691299
H           0.05081288617844   -1.58199308130034   -1.44311468401542
H          -0.24106181125291   -2.31659815385508    0.05957867689745
N           0.28245018470462   -2.19941315197804    1.37912625407705
H           0.04166700877185   -2.89979062233598    2.06749019593475
H          -0.12956534953348   -1.30076141149793    1.64048771457689
H           1.28864213820975   -2.07747792306521    1.35817662079916
