    23
        -45.37304250  Gyration_radius:  2.2835422735 Dipole_moment: 3.018
 S           0.67502575231371    1.28896681210257   -0.97034604208924
O           1.46537377298242    0.68135632813269    0.09859560999344
O           0.57991784183105    0.42672479620173   -2.12861335227250
O          -0.61639190098339    1.76188461332933   -0.50582751879669
O           1.49556638180110    2.56532026074053   -1.41876587334382
H           1.01652802165409    2.83535824601519   -2.19484180732224
O          -1.77097544863922   -0.64392574650082   -0.07116946550995
H          -1.53936948461332    0.25264004328166   -0.36833291563415
O          -1.49422938053564    1.92424778194258    2.06257952054978
H          -1.13837351108491    1.99704942470285    1.15660527574591
H          -2.44391898814263    2.02324371134148    1.97750409917414
O          -0.06740356224858   -0.39402870129672    2.07530802651815
H          -0.62933325343391    0.29080149629991    2.47473907110024
H          -1.34062696511714   -0.72531092651141    0.79991954325254
H           0.55385095835971    0.12549913926825    1.53459593819311
O          -0.32364995004070   -2.02697166038689   -1.77210127602086
H           0.66105429214924   -2.12758560408514   -0.69295480522535
H          -1.09290126850514   -1.70394372591968   -1.24300101185194
H           0.00949143455326   -1.19993208943537   -2.18341853214634
N           1.35742752079557   -1.92799163885666    0.14947869077794
H           1.58172259490106   -0.89422269494982    0.05914128048694
H           2.19441151800983   -2.49976726497232    0.12044189195793
H           0.86680361412666   -2.02941260036812    1.04046362215616
