    23
        -45.37705623  Gyration_radius:  2.29109108188 Dipole_moment: 4.688
 S          -1.41629754816762   -0.91753452474149   -0.39100202493694
O          -0.87697228563836   -0.73227035080035    0.95547053738390
O          -1.42511362973835    0.35799218046427   -1.11707378585718
O          -0.76937651543799   -1.95886466561948   -1.13538648911191
O          -2.93039554203372   -1.31792365953334   -0.16652554670338
H          -3.09390237868242   -1.00763059117552    0.71862401739643
O           1.56769660175517   -1.71010905157620    1.56471981241730
H           0.62073357327160   -1.52812400290725    1.41685824600011
O          -1.47564866761437    2.61288396464539    0.30989445705260
H          -1.54153200908143    1.79237403341856   -0.22138588092998
H          -2.14750088432130    3.20671305351006   -0.02612813342501
O           1.88468379281514   -1.72978295296572   -1.09941069023381
H           1.60721833932076   -0.22947724271573   -1.17885102253631
H           2.00649499086814   -1.89209100640531   -0.14037759390759
H           0.97251032108442   -2.03858371768822   -1.27370319070670
O           0.70810370692499    1.38007758382593    1.39122790940893
H           1.89995774790254   -0.96579594470961    2.07202086086431
H           0.09690601852198    2.12413113026312    1.29056319832257
H           0.11445574609468    0.60031693749436    1.41062427302206
N           1.18393068034069    0.76722567890456   -1.13213503507131
H           1.64030160571964    1.40744452004123   -1.77285865375482
H           1.21223336917486    1.11446920455602   -0.12916754555145
H           0.16151295688912    0.66455943349813   -1.34599772904146
