    23
        -45.37304258  Gyration_radius:  2.28351759636 Dipole_moment: 2.995
 S           1.67159671198920    0.47484190368158    0.18624378216857
O           1.58064948504339    0.13963018669966    1.59094132172693
O           1.31736881876848   -0.65639444459583   -0.66873182465133
O           0.94209215013174    1.68160469392383   -0.15853637349202
O           3.19790653189059    0.76162243871058   -0.11633580015623
H           3.40456165933207    1.40937652137052    0.54878265026761
O          -1.50304745654994    0.90439657438551    0.69472866347362
H          -0.65878751753241    1.36044749741703    0.53663562184076
O          -0.64459078444440    2.08526863005089   -2.32870410636315
H          -1.14179538831566    2.87524488231536   -2.11059613565703
H           0.02612282796676    1.99210271759303   -1.62569918810706
O          -1.21380144335494   -0.49167030621874   -1.65890882999623
H          -0.25078888961578   -0.53911538256549   -1.52272257090664
H          -1.66724072756043    0.41280200567423   -0.13105186043211
H          -1.31670654789733    0.31839995172343   -2.18545115270049
O          -0.69953154612231   -0.84522330108811    2.48181123316098
H           0.21657847419442   -0.49499765572842    2.43363429836600
H          -1.22028114598090   -0.13400035007249    2.03561969512514
H          -0.61440837925688   -1.79031707476424    1.36710361818635
N          -0.41864480408966   -2.29259774784812    0.39532782378388
H          -1.19064221965146   -2.11691077740867   -0.25112306562484
H          -0.23225415883892   -3.28500332061367    0.48850693955743
H           0.41564435990265   -1.76950764276192   -0.00147473952262
