    23
        -45.37304285  Gyration_radius:  2.28345181605 Dipole_moment: 2.998
 S           1.68229207599082    0.18048027620638   -0.44262730397003
O           1.47416623649048   -0.77656861416821   -1.50776666159567
O           0.76907949794788    1.31711558599313   -0.54415999673357
O           1.67048397426932   -0.42560234805230    0.87647356508631
O           3.12733295713970    0.78997758942915   -0.65187257604422
H           3.66080748083114    0.00372303460086   -0.69440830913633
O          -0.79657252958230   -1.52701647993138    0.76845649721720
H           0.15661897870894   -1.35130232820357    0.84782075590640
O           0.44877734066773    0.50944346472773    3.11853935060215
H           0.42585122099509   -0.24975153605542    3.70339459925456
H           0.99947093643658    0.24128022804597    2.35858145970450
O          -0.95841116031750   -1.74081398520702   -1.84452471465574
H           0.00500464581067   -1.57201076699418   -1.93221968061085
H          -1.05032738263807   -1.93925862736171   -0.88101343856517
H          -1.40781358733864   -0.34793568467472   -1.82887237405339
O          -1.34114077798138    1.14029118102840    1.16680576270897
H          -0.53765151427020    1.38788695638618    0.67552230790788
H          -1.21623089158337   -0.68058975800090    1.00954620012063
H          -1.02616670841300    1.09433735899600    2.08497626149840
N          -1.52940546333273    0.74119227226115   -1.64390943551057
H          -0.55739719427885    1.06536038138729   -1.36636598116013
H          -2.11861469651515    0.89281722560169   -0.82255377374416
H          -1.88015343909639    1.24694456386271   -2.44982252428972
