    23
        -45.37304283  Gyration_radius:  2.28355203778 Dipole_moment: 2.984
 S          -0.68642763914906   -0.89977268330649    1.33236253340563
O          -0.07977876180907   -1.60323667195107    0.20383249690283
O           0.31040826772762   -0.31358018728727    2.20202723739253
O          -1.70450957929111    0.04722346904696    0.91511645072867
O          -1.42307130325914   -2.02094449699897    2.17129461500119
H          -1.69656219737992   -1.53379444908042    2.94107284484466
O          -0.07319258965235    1.86698780066165   -0.24213082984032
H          -0.72546090394254    1.39528256271728    0.30346494911418
O          -2.75316121715571    0.35648446012289   -1.57450619827346
H          -3.18609182886951    1.21106066970749   -1.53980911128896
H          -2.48197075348050    0.16009166921949   -0.65768136048440
O           2.09695101610623    1.30432897436212    1.12735123450339
H           1.39779533378504    1.81097522135711    0.64725726798916
H           1.57135887830957    0.78285511756851    1.77223125898197
H           2.31804263786489    0.24404362283036    0.14168206003710
O          -0.13252304650364   -0.15872212469666   -2.10347469407953
H          -1.04908674995297    0.05389685062247   -2.34610156760074
H          -0.03206678562561    1.34877538649502   -1.06694225331345
H          -0.24420887661757   -0.81819242687270   -1.39579334633557
N           2.21354955086779   -0.61245997492996   -0.55824789088992
H           1.38851664151145   -1.15985422831782   -0.17475885200110
H           3.04952194658425   -1.18321285323744   -0.61910202680425
H           1.92196795992125   -0.27823571801313   -1.47914480792086
