    23
        -45.36949610  Gyration_radius:  2.26642144555 Dipole_moment: 3.783
 S          -0.69361938309405   -0.74730838274441    1.32354934740665
O          -0.41148655792885   -1.29463988474370    0.01243436818857
O           0.49431314453244   -0.67884421437215    2.16533028056739
O          -1.39515384119306    0.52470464751860    1.26705756642177
O          -1.67021454113268   -1.77076389884262    2.03197949083898
H          -1.65947375534245   -1.45501743272397    2.92958824861512
O           0.40452349268914    2.08385002686380    0.04701514540677
H          -0.31691872778192    1.75239555512438    0.61680410732868
O          -2.92213241394291    0.71759822321640   -0.95778031832871
H          -2.44987110067758    0.71431536402944   -0.10365040956412
H          -3.51748605421950   -0.03249969863366   -0.93584832847385
O          -0.37974851232824    0.54720025724873   -1.96537966179962
H           0.19221879184547    1.70421329961893   -0.84150272884256
H          -0.41808690216281   -0.20723805767182   -1.34712898568694
H          -1.30747221330922    0.82567929001876   -2.02464761277644
O           2.23801839309220    0.59048879347637    0.86055423777718
H           1.58415584508238    1.34401556724692    0.52950405831055
H           1.64856699212923    0.06841948712663    1.50862827924491
H           2.32739363351720   -0.08537626527260   -0.00846964720548
N           2.15256360634820   -0.98745309357905   -1.09386525987297
H           1.29230564106250   -1.44860674291454   -0.78883954171091
H           2.86648046939908   -1.67979420923227   -1.27650021247085
H           1.94112399327187   -0.48533865077271   -1.94883241333560
