    23
        -45.36949583  Gyration_radius:  2.26656347111 Dipole_moment: 3.796
 S          -1.46610378684363    0.43642590374100    0.67216651029612
O          -1.07890284902919   -0.82552215646561    0.07542358187200
O          -0.96053211279715    0.58777275333495    2.03067444296125
O          -1.13864743341212    1.58102891305827   -0.16197868737901
O          -3.04310727174597    0.40419446396767    0.79636247443923
H          -3.20573397687128    1.15552408328582    1.35716292566808
O           1.53298418883609    1.44784448883751   -0.24338895543918
H           0.60955168112187    1.76707245852706   -0.22998121344612
O          -1.14416115596019    0.94002380492815   -2.79010699268261
H          -1.17553701147615    1.27610614943019   -1.87428068470042
H          -2.01812268371272    0.59531222553280   -2.97729903426746
O           0.87560891702954   -0.61108982145734   -1.77972482896945
H           1.51717183114523    0.71829673044361   -0.91108293131750
H           0.13495866268754   -0.80111800395371   -1.17301291733914
H           0.44362697076836   -0.13273879176065   -2.50521763741891
O           1.53013252571301    0.20668625537858    1.92884099922647
H           1.68390521401841    0.79008154588235    1.06929505553715
H           0.54807544246833    0.38695471049735    2.13401333083855
H           1.52695656182915   -0.83362749056165    1.54819959500743
N           1.29338415587625   -2.07421044800403    0.90382187328111
H           1.80634768953309   -2.12920878139788    0.03112051363604
H           0.30422391872557   -1.95663148914939    0.67141378677841
H           1.42392049204304   -2.92917752402132    1.42757878332530
