    23
        -45.36949644  Gyration_radius:  2.26677174648 Dipole_moment: 3.775
 S          -1.15388781153260    1.20812831873166   -0.03609316663657
O          -1.35995570223940    1.16608033053874   -1.47847261619967
O          -1.22891718414867   -0.10437098621583    0.57183428821843
O           0.05740655911775    1.92867492399681    0.32011638003010
O          -2.36424094045967    2.04070220338629    0.55146122452910
H          -2.37040843759055    2.80038926548390   -0.02150868627136
O           1.95066503993812    0.36973315258568   -0.74882232646704
H           1.44131566565786    1.13666727363751   -0.42110235546579
O           0.97926760499531    1.19462313563262    2.75523649351057
H           0.26583534807350    1.36351653779803    3.37174421299872
H           0.69070700242651    1.56297532211731    1.89866512182195
O           1.16883363861655   -1.11887148411991    1.30017452477573
H           0.25066425092113   -0.83481769897289    1.13009580349205
H           1.88815299196546   -0.28439259763113   -0.00931366248520
H           1.44350044014245   -0.53900547255248    2.02830408960149
O           0.28801047122683   -0.50404210147134   -2.39926031262231
H           1.10302028446406   -0.16276532657567   -1.82933729110340
H          -0.05800426846465   -1.40218077011634   -1.85898730785484
H          -0.42587697605682    0.19232304999928   -2.18555461968695
N          -0.54833157465009   -2.37229819716162   -0.94021563805377
H          -1.09148022957469   -1.75957102706016   -0.32764791613119
H           0.20831723373918   -2.76020743618107   -0.38812999822525
H          -1.13459342658091   -3.12129043586311   -1.28318625176515
