    23
        -45.36949640  Gyration_radius:  2.26734773484 Dipole_moment: 3.762
 S          -1.32151710818895    0.11433742518303   -1.01746500134191
O          -0.87045605577326   -0.90809025174004   -1.95340990102655
O          -1.27027591807766   -0.33415867445532    0.35891456475441
O          -0.64057792135596    1.38177736306923   -1.22522056305248
O          -2.84884694646383    0.36149651247819   -1.34870650027333
H          -2.82681029710277    0.44986446196351   -2.29592477997261
O           1.88648639683403    0.74492940132672   -0.61549131015650
H           1.09088717545319    1.14919980049210   -1.01338817801075
O          -0.66475995030683    2.92492036168744    0.99681166303155
H          -0.65755615725299    2.46394418918660    0.13650365662937
H          -1.58624034143565    3.07512540309275    1.21108959537038
O           1.41340447388339   -1.64519283513028   -1.18107089658873
H           1.77267386019862   -0.67525560669914   -0.99710890831510
H           1.14103402637825   -2.02318132106578   -0.17789846746668
H           0.51118612721870   -1.45734202118151   -1.61743406575665
O           0.76593203271455    0.72526719360003    1.78740051909292
H          -0.03163917280860    0.32705538744683    1.38985451604832
H           1.70398926414615    0.77920388296537    0.35607465446076
H           0.52856770094444    1.66359626083900    1.85600935625092
N           0.60622448171478   -2.28116522547249    1.11171316284133
H           1.13148774897325   -1.78755865594633    1.82462513668148
H           0.46266699430504   -3.23953396692632    1.40026423033090
H          -0.29586042395006   -1.80923906471037    1.01385752648093
