    23
        -45.37023131  Gyration_radius:  2.33345456937 Dipole_moment: 4.354
 S          -1.06044917712145   -0.63900967255720   -1.11609632881202
O          -0.63907701711077   -1.66502096595653   -2.05529506839493
O          -0.98971212285410   -1.13142326382856    0.25370657165826
O          -0.37922233524585    0.62591198209848   -1.28902006072874
O          -2.59519806741170   -0.33662396281552   -1.42010697368968
H          -2.98112516028736   -1.18603216190376   -1.61598977590855
O           1.89339637158077    1.12041091207057    1.86781638646498
H           2.05959370561172    2.04224546244283    2.06984533921629
O          -1.88505941286088    2.31077975818199    0.14763597673014
H          -2.77736401751953    2.06255186846816   -0.10033034639847
H          -1.29953763850888    1.81907341769287   -0.45837111271048
O           2.20015582273079    0.35232196343563   -0.62464077155787
H           1.88971087106103   -1.06626945714840   -0.51708940949517
H           1.34892147440130    0.65428986263605   -0.99975346462462
H           2.19610207931293    0.68304605363706    0.31328800558588
O          -0.71033112925895    0.80436327315023    2.10917723514146
H          -1.14179330587076    1.52908416177657    1.62096506848635
H          -0.86892917078577    0.01868491658665    1.55593737577305
H           0.92206315734972    0.97985036645934    2.03089359838946
N           1.37557445883050   -2.05367645489655   -0.44933521168102
H           2.00141208177857   -2.84443157216575   -0.33581872771709
H           0.75719697052761   -2.11510127571344   -1.29881492786526
H           0.68367155165156   -1.96502522165171    0.31139663213134
