    23
        -45.37023128  Gyration_radius:  2.33352996051 Dipole_moment: 4.354
 S          -1.29257616673928   -0.45442257329337   -0.94963870445302
O          -1.09560954045680   -1.17314138141840   -2.19744745917972
O          -0.84697545217808   -1.25462599177971    0.18389325331700
O          -0.72696064517994    0.87754973231962   -0.94752801528177
O          -2.86322694523201   -0.24596133057416   -0.77976873267632
H          -3.25594052655620   -1.05711919952634   -1.09063533685184
O           2.27604695122670    0.82088869311195    1.57382241285259
H           2.45624629706642    1.67803447281056    1.96247334479693
O          -1.86302264917691    2.00053394046161    1.20143433636765
H          -1.43972025868080    1.73295421193505    0.36407063969836
H          -2.77933778741316    1.72926919205770    1.12370463377581
O           1.94462639934450    0.71693489804205   -1.02916764810595
H           1.72496777958114   -0.70937015534719   -1.22303115187316
H           1.01437327862881    1.01209520030766   -1.09240504469372
H           2.17515727864165    0.80776880427114   -0.06597567947588
O          -0.16011553855842    0.19181488372314    2.35298295847988
H          -0.73057091537594    0.96527753401994    2.19149508561998
H          -0.42998907902064   -0.44818552856728    1.67029577838201
H           1.38726087929184    0.54659375223110    1.92682693459978
N           1.28281837836760   -1.73101356970329   -1.29166900201179
H           0.46563185780143   -1.64748252571916   -1.94976512388117
H           0.81222228764119   -1.90102710589819   -0.38894200838486
H           1.94469416697840   -2.45736598347257   -1.54502547102609
