    23
        -45.37023133  Gyration_radius:  2.33340044958 Dipole_moment: 4.359
 S          -1.10804106034336   -1.22509094242108    0.21633338867059
O          -0.81221256004452   -2.58947841988209   -0.18793496538875
O          -0.21101139519577   -0.79557144541346    1.28143687232936
O          -1.15480178877716   -0.28732042600799   -0.88477421346212
O          -2.58013725726087   -1.23319678061061    0.82647466004394
H          -2.63965367315998   -2.04616079658988    1.32084200300035
O           1.92823615451351    2.09773711022840   -0.45825644873720
H           1.79024437666884    2.96356640201674   -0.84492654175403
O          -2.33310433148325    1.85182318102701    0.21403205678924
H          -3.05337130690773    1.46367777550387    0.71389396109069
H          -1.96221763653833    1.12306827366171   -0.31792665259648
O           1.29929089596685    0.00504286326691   -1.91507175043107
H           1.66754319976021   -1.07941204870080   -1.01568535605111
H           0.33214302291042   -0.01543150775139   -1.77141444188330
H           1.60730857252437    0.83065245704059   -1.45412862760991
O           0.11528018132008    1.87568710550213    1.43953671750254
H           1.29513790810078    2.04060884761056    0.30706104726544
H          -0.74243679157570    2.14337966282078    1.06221137415270
H           0.04159928553279    0.90903371868661    1.53267015394260
N           1.68615595804452   -1.85159960965727   -0.21121761297328
H           0.82085048091081   -2.43441702992035   -0.35224407520190
H           1.46826725722395   -1.35599849268692    0.66728498893493
H           2.54493050782424   -2.39059988772133   -0.16819653763675
