    23
        -45.37023097  Gyration_radius:  2.33341537123 Dipole_moment: 4.356
 S          -1.07045601356676   -1.15977794954010   -0.53453300240090
O          -0.13401743828084   -0.49782569489755   -1.43360504818534
O          -0.76430121989106   -2.57635031235952   -0.42358010201625
O          -1.18935722008692   -0.48674566926240    0.74093236259854
O          -2.51163505482262   -1.04932455909760   -1.20526843218440
H          -2.52549940278092   -1.72592901330236   -1.87661536179840
O           1.86131207590925    1.96488808195442    1.00025980959537
H           1.68926920750412    2.72396002480712    1.55915303974002
O          -2.36062512844102    1.82907561174315    0.08090912763166
H          -1.99964491859045    1.00491349883862    0.45795244388941
H          -3.04936837617812    1.55280241950621   -0.52617215269508
O           1.20670853045541   -0.40116843840834    1.93322955849088
H           0.24808380188437   -0.39975899293142    1.73958676367055
H           1.64022379777813   -1.25853340874239    0.83864683072274
H           1.51880616737970    0.50828753259986    1.67931787780298
O           0.14128424175246    2.14610242182576   -0.98620891613553
H           1.26481979160085    2.07068830072344    0.21104332737617
H           0.09250840536952    1.22267161947255   -1.29192264176019
H          -0.73839062701018    2.31561733029034   -0.60268856491069
N           1.71340139429159   -1.83533605692175   -0.11294661081993
H           0.85411219982291   -2.44297890626415   -0.14769010184284
H           2.58393238289549   -2.34407662129138   -0.22790431521754
H           1.52883340300028   -1.16120123873823   -0.87189588154964
