    23
        -45.37023139  Gyration_radius:  2.33332462593 Dipole_moment: 4.363
 S          -1.17721603064991   -1.04486714421203    0.54512357770030
O          -0.92693128304913   -2.47255850198668    0.65323017458210
O          -0.32116407866860   -0.29929046504689    1.45883802646752
O          -1.11586890342202   -0.54261434637744   -0.81062272612822
O          -2.67982705653587   -0.80256546608238    1.01729634345902
H          -2.80746043505988   -1.39582523273428    1.75252297012248
O           2.04903140306148    1.75971376317680   -1.01859799700773
H           1.96908410453600    2.43999424260279   -1.68875110850604
O          -2.24635882834718    1.87519621407947   -0.59224671492706
H          -1.88296486495170    0.99804581358760   -0.81659430678723
H          -3.00991751551159    1.70221895418468   -0.03882705966548
O           1.40316508416048   -0.69097109534983   -1.70553763197610
H           1.72466056867243    0.23489583485857   -1.53603091301512
H           1.66691037431018   -1.40762498742950   -0.46601888258016
H           0.42963093116828   -0.63475353702953   -1.63108064075690
O           0.12920823591566    2.25256722007209    0.71596469442356
H          -0.69233817354191    2.39780627009495    0.21227159612795
H           0.00262918364205    1.37952852653610    1.12866063125567
H           1.37446572156900    1.98627536604879   -0.32324532695160
N           1.60243039080136   -1.85557472199683    0.55343866209945
H           0.71888378311054   -2.42784318966113    0.56034651123284
H           1.36007298791342   -1.08205333256691    1.19202362868041
H           2.42987439087272   -2.36970015475975    0.83783649214909
