    23
        -45.37023132  Gyration_radius:  2.33328972362 Dipole_moment: 4.358
 S          -0.53558553203387   -1.10961920049847   -1.12156912004407
O           0.24358873571550   -1.41755389182527   -2.30920307817389
O           0.17898806099418   -1.51031007353240    0.08367062017177
O          -0.99764011240932    0.26053316555857   -1.06550001249531
O          -1.85674223045558   -1.99787941116634   -1.19266410609351
H          -1.57209977964758   -2.83889994605840   -1.53973651092861
O           0.94111218918276    1.97895716355492    1.87689254640663
H           0.45906369464961    2.70844210206061    2.26896597732685
O          -2.85273542261081    0.17757197670886    0.86398999148130
H          -2.25684135721047    0.32529869179218    0.10587655397214
H          -3.34021674169541   -0.62113350332606    0.65499923678800
O          -0.54435657730451   -0.15474967763797    2.29860720827580
H          -1.45708742776451    0.06396594687989    2.03631463644388
H          -0.23407413210812   -0.75548205109524    1.59761164919036
H           0.41982076160212    1.16125373837020    2.09946121814005
O           1.09586723035637    1.89860130939734   -0.74344505826507
H           0.22068802546761    1.51514899219471   -0.95193524358149
H           1.08392343269450    2.03849740455664    0.24111775187230
H           1.90064324259293    0.70003387373497   -0.93562891225449
N           2.25720318340140   -0.35079559983677   -1.04612189563847
H           1.90729246255585   -0.86064802930887   -0.21982127856725
H           3.25885748009385   -0.44086502347595   -1.18171554342033
H           1.68033079395174   -0.77036795704293   -1.82016663061475
