    23
        -45.37583661  Gyration_radius:  2.28680001277 Dipole_moment: 1.611
 S           0.66200605837959    1.47166773988904    0.30219252919097
O           1.30578514669753    0.46308657335216    1.13582486760442
O           0.74355360419196    1.15962315913478   -1.11154907983317
O          -0.70056658337512    1.74454714422023    0.71498176256504
O           1.49697030301277    2.79694909298626    0.53477419793095
H           1.00349865997479    3.45370433741149    0.05358612338991
O          -2.12765580762190    0.58933756481697   -1.35925857998776
H          -1.53655764133217    1.13958813065341   -0.82109595162370
O           2.79066874424673   -1.32781249102849   -0.22885236122974
H           2.35935407154866   -0.64690345272196    0.32442890153812
H           3.55603696190988   -0.90425837929882   -0.61976204339896
O           0.40839092702360   -1.42938824053449   -1.51788611451778
H           1.31445747566517   -1.71517983092706   -1.30166664309241
H          -1.58904596782180    0.23786132476588   -2.07090638773566
H           0.48967663881122   -0.44980426622428   -1.53341431622232
O          -2.68778517136866   -0.07011944627927    1.21087767246054
H          -2.96302803680279    0.00505069452802    0.28211649380663
H          -1.44672989268301   -1.04212848214385    1.08947874909038
H          -2.16950297120683    0.74047157716073    1.35304361913386
N          -0.48241798150791   -1.47976972891222    0.94703348784165
H           0.22915785981647   -0.77253214236646    1.24996136621081
H          -0.27707193308386   -1.61540722912417   -0.09492253815635
H          -0.37919447347809   -2.34858362765386    1.46101422440759
