    23
        -45.37023132  Gyration_radius:  2.33352584075 Dipole_moment: 4.356
 S           1.01979202512457   -0.72362383271731   -1.10250058725395
O          -0.22720015176551   -0.08589767680479   -1.50519488117309
O           2.16296039027049   -0.01352086820210   -1.65136826730237
O           1.09824077546763   -0.94053752330465    0.32611543717683
O           1.02553716410848   -2.17917687937996   -1.75104390760893
H           1.28890517753785   -2.04538615878687   -2.65743691269279
O          -1.69517211491736    1.27443464983620    1.95839587864985
H          -2.00770739287287    0.92400837082935    2.79371555999087
O          -0.80609834272421   -2.77419263866591    0.75236411713139
H          -0.66707434005778   -3.39538126223511    0.03538095347103
H          -0.04516154266137   -2.16443384051248    0.72036220410627
O           0.90294483768882    1.40658875371032    1.59978637035179
H           0.97069284793813    1.99033753542823    0.26750151455820
H          -0.06360471698205    1.42181233387529    1.83361170204272
H           1.08629247786243    0.47748422902021    1.35554776290513
O          -2.29505931617802   -0.55393567664212    0.15990515662168
H          -2.00198507387480   -1.41571548541798    0.50787994878156
H          -1.98679764570095    0.62163340507782    1.26655211151759
H          -1.65750897009406   -0.35547007405850   -0.54910278498283
N           0.97777739341976    2.15860882681582   -0.83499975746506
H           0.11262563709595    1.72704536514856   -1.19640772570895
H           1.71752516139128    1.51621815978121   -1.21945558614772
H           1.09007572992992    3.12910030722154   -1.10960830697077
