    23
        -45.37023127  Gyration_radius:  2.33340030498 Dipole_moment: 4.355
 S           1.21885486405290    0.43033662358122   -1.05228049920106
O           1.47454638687754    0.15348817729859    0.35547773749927
O           1.86783077670048   -0.55736350867569   -1.89818692044409
O          -0.18844808366926    0.60936055111648   -1.33784587915480
O           1.89729450399968    1.83478175704758   -1.37815061323280
H           2.82328255259755    1.64138500342747   -1.49622304029062
O          -2.15538142116479   -0.78354220041668    1.75251103358205
H          -3.01020979422379   -0.36503065762766    1.86401455099414
O          -0.76950679640701    2.88350627702208   -0.04908674660635
H          -0.67170452717916    2.09224162798705   -0.61143300189756
H          -0.02852527513176    3.44966421401469   -0.27203181493912
O          -0.38653912576512    1.14773564279337    2.03350306455975
H          -1.48240036953776   -0.07327745106458    1.93270388280477
H           0.38051919001455    0.79004851260503    1.55160420635621
H          -0.68196907827290    1.89739482748533    1.48539226511087
O          -1.52686456434336   -1.60826350970082   -0.65983352791463
H          -0.20867275900307   -2.17994386469158   -0.42521802566482
H          -1.86155635598435   -1.36442117624706    0.24455118421789
H          -1.24397776706363   -0.76096977593569   -1.05806672106909
N           0.88454077574680   -2.33680238699722   -0.26881589694885
H           1.35857518620531   -1.91369398428132   -1.10792979582474
H           1.14757006629287   -3.30000069921315   -0.08753419294313
H           1.16274160526458   -1.68663398952065    0.48287874100945
