    23
        -45.37583686  Gyration_radius:  2.28606659272 Dipole_moment: 1.593
 S          -1.48808899891319   -0.48608553285475   -0.49849146810558
O          -1.60362654748241    0.56539135691531    0.49340015167452
O          -0.69054988249898   -0.08215861211908   -1.65076300133766
O          -1.02725122926233   -1.72947011605353    0.08696047922613
O          -2.94116075538571   -0.74815003824167   -1.07080955375804
H          -3.40801945350692   -1.10991846087880   -0.32413939534285
O           0.09455749192951   -0.81509398861023    2.45489966006624
H          -0.51366991865402   -1.02970852586284    1.73006471187344
O          -0.13669103109283    2.55628310487712   -1.74335829612990
H          -0.39688598590662    1.61707619778263   -1.82004980289706
H          -0.93801482040424    3.06370093747196   -1.87878640829592
O           1.53281493220541   -2.39178427329377    0.78347016369253
H           1.80261610945223   -1.05692211465952   -0.01822310315462
H           1.36089651754114   -2.04613954779631    1.67515871110818
H           0.63919224655372   -2.54439560192760    0.43093564278913
O           0.68093894837301    1.86689547522249    0.74711742867174
H          -0.20574418471433    1.44660079979778    0.80829664901088
H          -0.00107961902537    0.12619964454419    2.61304554945477
H           0.58570877173936    2.45289084407992   -0.02547067664554
N           1.72473893661964   -0.14539171870715   -0.57074650600936
H           1.49491495392849    0.67369660721615    0.07880307271121
H           0.87653608141901   -0.22288269973032   -1.18160020791496
H           2.55786741741855    0.03936625268905   -1.11971383066161
