    23
        -45.37023131  Gyration_radius:  2.33340336489 Dipole_moment: 4.355
 S          -1.07198740206815    0.21704500899328   -1.25740349638921
O          -1.00943996382417   -0.60770113132186   -2.45249907138862
O          -1.40308210267676   -0.58936180288358   -0.08950069943692
O           0.10183780157858    1.03823186184613   -1.05259840791952
O          -2.27303767966240    1.24306611576384   -1.46663067731150
H          -2.95614431056488    0.73993063638544   -1.90142472534443
O           1.92553442846206   -0.36754030960242    2.11908019437652
H           2.44046772842328    0.29979114755300    2.57492419869699
O          -0.71529743055544    2.78357856056305    0.80661376229361
H          -0.32120946815599    2.25690580529778    0.08606435756538
H          -1.58570064608452    3.03573566567192    0.49337317340777
O           2.19974066208520   -0.52649547678328   -0.48756202373456
H           1.61878591933245    0.21074951249194   -0.76229269046965
H           2.21361180712774   -0.48212382851847    0.50599589482170
H           1.29995801154607   -1.62852552852381   -0.79684916270285
O          -0.57127069648366    0.46111900382043    2.24982796295473
H          -0.97546473279631    0.00305367349045    1.49130808746216
H           0.97466683259220   -0.09723766151765    2.23152815609788
H          -0.58227804258533    1.40094692435317    1.99235364128623
N           0.40812961488154   -2.25984123290736   -1.02084195867476
H          -0.05674189597869   -1.81568646308731   -1.85413957430122
H          -0.27399879510328   -2.06894706989288   -0.27013718091727
H           0.61292035050944   -3.24669341119145   -1.13918978037363
