    23
        -45.37023126  Gyration_radius:  2.33340963543 Dipole_moment: 4.352
 S          -0.19595438114156    0.14566126572080   -1.64908367868515
O          -1.27579631880593    0.93828701319010   -2.21301617393052
O           0.72874034049959    0.98879434563868   -0.90209232098463
O          -0.64805260252415   -0.99742166488741   -0.88545276602921
O           0.62007293182656   -0.46218573917885   -2.87536379953226
H           0.64420856891950    0.23371675672393   -3.52652779099456
O           0.25438530320716   -0.27305985622037    2.86102954812287
H           0.38732505145688   -1.06997326640840    3.37624966385918
O           1.58348745517928   -2.45356570801280   -0.62110767270757
H           1.96227384613573   -2.42364458388664   -1.50139924400758
H           0.69682054483228   -2.05525067031689   -0.70499551464006
O          -1.88171475904188   -0.15785971515468    1.33782189143026
H          -1.14710698182178   -0.22371497493679    2.00501506205570
H          -1.73823983037753    1.17200923244902    0.76203907360350
H          -1.56956648232588   -0.67764404552048    0.57043665201494
O           2.12071804973208   -0.31557985581694    1.00293667696237
H           1.00275344339891   -0.24798083523706    2.20592713640691
H           2.11361276451872   -1.20220824019468    0.59852089901163
H           1.73466901119645    0.25993429993809    0.31865096322357
N          -1.44672541269479    2.04899771628523    0.13779446019179
H          -0.41475046098878    2.05752960701784    0.11986556059276
H          -1.85280285526845    2.92946096132192    0.43726648686075
H          -1.67835723589522    1.78569796748523   -0.85451512283322
