    23
        -45.37023124  Gyration_radius:  2.33344868111 Dipole_moment: 4.351
 S          -0.25533978536942    1.11883092321987    1.20928428471889
O          -0.17303877793369    0.74565045592175    2.61151505363218
O           1.03901034277247    0.96673216642785    0.55697113984241
O          -1.32232352517215    0.45628674838727    0.49049997168533
O          -0.61634237134300    2.67017231599028    1.16436053299771
H          -0.11601893564935    3.06189271629983    1.87500399190665
O           0.38613567384005   -1.99036157877779   -2.05347217017214
H          -0.15151661406724   -2.16275407801110   -2.82770073407829
O          -1.49493054674240    1.88689573015316   -1.76634231524897
H          -1.57882813295270    1.33436530647273   -0.96658067249946
H          -1.44657998620699    2.79058507790106   -1.44966957110518
O           0.89395716046263    0.59352508304573   -2.10910285382830
H           0.64215121908822   -1.03072208013579   -2.11168817753615
H           0.05140093056017    1.05628867155338   -2.26932762473604
H           1.09174577820806    0.77874561583773   -1.17363057327608
O          -0.78088742874394   -2.15862387631633    0.29299165370186
H          -1.22020551892696   -1.28543941700025    0.32559795193254
H          -0.37699370177523   -2.20608805920070   -0.61464105799329
H           0.33658331568878   -1.86356592566257    1.17875401772832
N           1.12265899497200   -1.35999612546928    1.78902051632463
H           1.74799144217147   -1.99593410343777    2.27315562703653
H           0.61167725405546   -0.69477091366950    2.42467489766488
H           1.60969321305997   -0.71171467353081    1.15032612131153
