    23
        -45.37023129  Gyration_radius:  2.33338337745 Dipole_moment: 4.357
 S          -1.60400741532801    0.13538385710325   -0.43034784714243
O          -2.03425764794151   -0.04953602433547   -1.80621195155820
O          -1.04951458591430   -1.09992709035838    0.10846866417269
O          -0.72522498378619    1.26940179290177   -0.24083127632929
O          -2.90952909648049    0.46644562138113    0.42130612470813
H          -3.59025636417829   -0.09488319852097    0.06030234478304
O           2.79912366916303   -0.18044533849645    0.68033989516944
H           3.32632898996292    0.41992357322807    1.20930747293730
O          -0.74067501738338    1.58912880865995    2.41777585061305
H          -0.70521028322700    1.62223091122739    1.44338290568296
H          -1.66908190797769    1.49332702989338    2.63723909924449
O           0.68050192100269   -0.73527277639116    2.14366361591050
H           2.03633624316938   -0.45050238076006    1.25916069097174
H           0.32440632770438    0.10695965875048    2.48063714758343
H           0.03665519106973   -1.01080692510518    1.46684056849411
O           1.61733020540472    0.79994224999995   -1.45004092704884
H           0.83749712930325    1.21721202325953   -1.03268001987495
H           2.16665613177553    0.47024785641756   -0.68935335075827
H           0.96198085493897   -0.38986162839280   -1.97475918786116
N           0.25832095741849   -1.23187810943639   -2.17419590083566
H          -0.67287774901671   -0.78656547186191   -2.37985329934366
H           0.08228907558780   -1.68049048036236   -1.26140601970926
H           0.57320833473149   -1.88003396880041   -2.88874458980537
