    23
        -45.37023134  Gyration_radius:  2.33329950056 Dipole_moment: 4.360
 S          -0.27705522031974   -1.43172544434989   -0.80564748899508
O           0.12620447158050   -1.39609087524431    0.59433053293537
O          -1.61897098132691   -1.97309736730004   -0.94207789973022
O          -0.08997394923562   -0.16072285987750   -1.47172090880819
O           0.70688360300001   -2.44434035594703   -1.54464536941495
H           0.37015719310648   -3.31227809497470   -1.33932484883404
O           0.41762620104717    2.51860654542332    1.34506695200405
H           0.93755664168724    3.27042621243292    1.05747565319156
O           2.57523214628204    0.09592997607106   -1.50641013909287
H           2.86839959408349   -0.77836656813865   -1.76894250872117
H           1.60614713211533    0.09039781869014   -1.61824985499738
O          -1.52997336072874    1.72234290119192   -0.22649915841374
H          -0.84448271194338    2.13098465073144    0.36694761448237
H          -1.01853133810298    1.20174099633591   -0.87750201646743
H          -2.07428639776170    0.61428024840750    0.54644285406445
O           2.02152322100582    0.43802094598028    1.15309461968354
H           2.44491379592193    0.47169381173381    0.27597967879698
H           1.04183140786812    1.74389167225855    1.34526079660566
H           1.38684350594038   -0.29717074857825    1.08144875043920
N          -2.26719975894659   -0.37932488517547    1.01438618938118
H          -1.37521442932093   -0.67214636992301    1.44318898860592
H          -2.35807455190017   -1.06019590955292    0.21682788639065
H          -3.04955619404431   -0.39285630020021    1.66056966689522
