    23
        -45.37023124  Gyration_radius:  2.33337817533 Dipole_moment: 4.356
 S           0.10598190396342    1.51490265550001   -0.68620958124518
O           0.79094298338228    1.17857094076680    0.55542133390007
O           1.06305801276313    1.79934866784722   -1.74225448954782
O          -0.89448667813241    0.53577931984990   -1.05301022062539
O          -0.70109817554698    2.86258002661752   -0.41878798803365
H          -0.05261245966940    3.55793820120125   -0.48801637005369
O          -0.19498938597415   -2.65952224989942    1.10488999684940
H          -0.98370448893749   -3.18245984460122    1.25576121370849
O          -2.73366934508681    0.82122199111962    0.87223791363210
H          -2.17875819762745    0.66922045616261    0.08431099375909
H          -2.81570664583399    1.77352601680041    0.94804050294359
O          -0.66605637921539   -0.33300594840362    2.24699213862247
H          -0.33805813742531   -1.80788439021220    1.59883302393121
H          -0.05912213647247    0.25524067067265    1.76318606764041
H          -1.55250248729718   -0.04250185495763    1.96501926242290
O           0.26592666629160   -1.85836881167815   -1.35313662220218
H           0.08935222667140   -2.27230604268512   -0.46616405442896
H          -0.33790898079822   -1.09010757970150   -1.39446626993495
H           1.51655324138266   -1.13273719835560   -1.18148612601599
N           2.29271556948267   -0.36193575601323   -0.96375160070365
H           2.10323645842295   -0.02716487212461   -0.00589481270688
H           2.03373700765535    0.47842969561632   -1.54191880091320
H           3.24716938799909   -0.67876411351081   -1.09959554099006
