    23
        -45.37583665  Gyration_radius:  2.2862540074 Dipole_moment: 1.592
 S          -1.21285951526002    0.03429271550846   -1.10700804573524
O          -1.33706400007661    1.14660132532079   -0.18484621585288
O           0.07572533444608    0.01477379680293   -1.78957801553081
O          -1.52172141515474   -1.23020034120261   -0.46919525646286
O          -2.28478490675202    0.25709426232960   -2.25113971814007
H          -3.11508973958951    0.17327304248597   -1.79300406277326
O          -1.23265618913759   -0.55879743778100    2.20643017811659
H          -1.51767877545503   -0.61075937441425    1.28042581935945
O           1.53810056286366    2.25758062804221   -1.46119931742966
H           1.01041983112330    1.47131094386264   -1.70411458729249
H           1.10997587190588    3.00331460251065   -1.88360390060102
O           0.08520179377717   -2.69795013061886    1.18684588221283
H           1.12700231992321   -1.62995203089814    0.66511007293240
H          -0.30058515618247   -2.23163191824230    1.94689361125903
H          -0.57086206901545   -2.55263441790896    0.48359076491449
O           0.94038614423146    1.56076932985578    1.08873771175698
H           0.02161538665367    1.49396519342284    0.74551886816984
H          -1.03997207717615    0.36573898859709    2.37417651910340
H           1.39298216133623    2.06504641148225    0.38852300412578
N           1.62198653007392   -0.80794732933646    0.19462729038275
H           1.13812114696920   -0.63415049741536   -0.71871907479027
H           2.61150322283935   -0.98674356684960    0.05856199116515
H           1.46025352759425    0.09700578445780    0.74296650112980
