    23
        -45.37304285  Gyration_radius:  2.283498193 Dipole_moment: 2.994
 S          -0.84282325950164   -1.14314353616107   -1.01971047102816
O          -0.00214015218284   -0.10652903390160   -1.61571128711259
O          -0.05521437861008   -2.20367023819796   -0.42924504928471
O          -1.83606041685477   -0.59924761843702   -0.11143819068525
O          -1.63416307002464   -1.78206235134714   -2.23177988832460
H          -2.06455833408243   -2.51835791914734   -1.81078625560217
O          -0.16077020607301    0.15908603188300    1.87091740151683
H          -0.86319793851968   -0.23833408171503    1.32839302048837
O          -2.45603466120140    2.01812830470785    0.28764037861513
H          -2.94388853136226    2.01774265039567    1.11280360075423
H          -2.33533718301803    1.07880588604140    0.05135377925025
O           1.77218701565585   -1.54395474669189    1.35638044018009
H           1.18042608328869   -2.05858532858730    0.76552870527597
H           2.23459777603305   -0.56183367318696    0.37376514714045
H           1.13344956970876   -0.97348182951168    1.84885445864737
O           0.24549588890271    2.09848149915579   -0.03818889948506
H           0.05909253114464    1.45538561594020   -0.74523854405891
H          -0.62786704098910    2.48830452395325    0.13376991213860
H           0.05932276590148    0.98789108935996    1.40696885881822
N           2.31354554946290    0.18718386875540   -0.44321255587575
H           1.47539265268505   -0.01673070635870   -1.06213047336783
H           3.18558488942202    0.12749624720883   -0.95732911944375
H           2.16296044022208    1.12742535582474   -0.07160496859426
