    23
        -45.37304286  Gyration_radius:  2.28348704986 Dipole_moment: 2.996
 S          -1.73796743368635   -0.06727084609323   -0.17937965854042
O          -1.86537766288485    0.33017850528660    1.20610790918855
O          -0.95523089705606    0.89477686489393   -0.95282138408422
O          -1.26004687719709   -1.42872539309049   -0.33842622630362
O          -3.19042952215035   -0.01737071049391   -0.80463690707199
H          -3.67829610644180   -0.56196940049459   -0.19640893142857
O           1.06494137858938   -1.17428832995850    1.01885040804369
H           0.18880177568070   -1.43479735005520    0.68695123679159
O           0.61133736087666   -2.33138484889574   -2.09246892923344
H           0.85737111629450   -3.19096928463992   -1.74682909173455
H          -0.15302951693620   -2.04094542484766   -1.55950438765459
O           1.61404650433179    0.09169567288097   -1.36119992019911
H           1.62925521997160   -0.75479671534579   -1.83821294437200
H           0.68348886127684    0.36720465518189   -1.44081128492143
H           1.50957308998849   -0.78789623764204    0.24185402364305
O           0.34365133903360    0.82564576529839    2.56152717445531
H           0.71930629841737    1.68976565505034    1.44098443198723
H          -0.59835488660909    0.69111932517282    2.31922319570000
H           0.76261590397547   -0.01325721511945    2.25029939140747
N           0.85550987668817    2.15839192251595    0.44265417278828
H           1.68194871196653    1.76985062287115   -0.01644866729740
H           0.89347512931008    3.17111499100606    0.47833623991723
H           0.02341035656196    1.81392777650371   -0.11963983108103
