    23
        -45.37304287  Gyration_radius:  2.28354469528 Dipole_moment: 2.996
 S          -0.91256498881215   -0.37048245531217   -1.44467738471222
O           0.15952678784651    0.62207658774350   -1.48587716534892
O          -0.39597323116714   -1.72090723503800   -1.38836340553972
O          -1.88893691672611   -0.09150983945992   -0.40730283206688
O          -1.66424140615342   -0.22599405288098   -2.82947049290789
H          -2.26501594750605   -0.96265997566514   -2.79751138186694
O          -0.33784233524516   -0.65566597394759    1.73417880584773
H          -1.03427786658847   -0.61584600219687    1.05657149710071
O          -2.07802374546563    2.14339715760731    1.13068129476796
H          -2.64456730650687    1.87757430569527    1.85681826212730
H          -2.09974467282157    1.40403025287690    0.49392458376438
O           1.30864116447717   -2.31492020704178    0.53621399359006
H           0.70490573674063   -2.37945181544357   -0.23547875687529
H           2.04454875546697   -1.12058951224854    0.11848074736556
H           0.72976795321738   -1.90178877258835    1.22210344818050
O           0.61476663511670    1.79616690385207    0.92801316519646
H          -0.18994685927566    2.24157985596739    1.24165341981339
H           0.07599240240184    0.22665779293149    1.70340748165183
H           0.39816510096868    1.58663116939680    0.00206985666573
N           2.34598069169474   -0.12231627220861   -0.26592811910829
H           3.24488028105021   -0.12937594799256   -0.73523354456706
H           2.32527673226054    0.56482336934216    0.49044080975541
H           1.55868305501956    0.14857064661586   -0.92471428282952
