    23
        -45.37304286  Gyration_radius:  2.28346961334 Dipole_moment: 3.001
 S           1.63696832447473    0.44798447313049    0.42099061571749
O           1.60419011436194   -0.54185309739670    1.47591089811794
O           1.34764299158263   -0.13810060624174   -0.88634441481325
O           0.81209991436136    1.60839994147545    0.70453068971094
O           3.13015426027397    0.96209407849344    0.32301921617409
H           3.30195717963402    1.21985792540882    1.22236663072416
O          -1.54745262192729    0.32731770554435    1.02558985391974
H          -0.74299780518181    0.86431847746610    1.12645075213999
O          -0.86229959081399    2.90559739156851   -1.00063596965113
H          -1.41962265680082    3.42998475106046   -0.42329632208298
H          -0.16577242508287    2.53192154064930   -0.42800138827328
O          -0.57446132964318   -2.00870165700545    1.72968696676314
H          -1.15689655705219   -1.21191644697497    1.68374356868462
H          -0.44489197582158   -2.27216673166392    0.29553018875352
H           0.31171507289528   -1.61165922690090    1.87539147882273
O          -1.21184057478660    0.29915421211119   -1.70480841613486
H          -1.38736397191717    1.25318447791151   -1.76276975836988
H          -0.24487079711825    0.26420005235243   -1.59543909652541
H          -1.69366841319912    0.29473077282842    0.06211269061141
N          -0.23499769349636   -2.21408682258489   -0.79421953304755
H          -1.03321309282070   -1.80315054063550   -1.28280126600193
H           0.02757136410168   -3.10613642400548   -1.19872261512302
H           0.54805027398464   -1.50097424657376   -0.86828476011295
