    23
        -45.37583675  Gyration_radius:  2.28646429656 Dipole_moment: 1.602
 S          -0.07651934436262    1.58235629225958   -0.42971257562777
O          -0.47404334592560    0.74708292068500   -1.55711451158344
O          -0.87842903619035    1.33804201889561    0.75346994200870
O           1.34225636617850    1.49273095042284   -0.14607352241833
O          -0.36937153145527    3.06849524309598   -0.89179421182207
H          -0.01517958640551    3.59309284336140   -0.18068075386821
O           1.31890722936810    0.06608930680408    2.23059494854326
H           1.19362481350483    0.73485005108012    1.53874535614997
O          -2.80082548888545   -0.56839402678855   -1.19597907623138
H          -3.53351492103214    0.04760287065826   -1.15510037237143
H          -2.01378762813564   -0.03544929433654   -1.42466917467957
O           2.83882951448706   -0.77790346149570    0.14961100359257
H           2.65867129391879   -0.75121610547923    1.10400940452979
H           1.49632581280065   -1.40263520136355   -0.40313630966803
H           2.65292317682691    0.13342908971195   -0.13499438686566
O          -1.39111451612694   -1.24023675141727    1.01941477143839
H           0.44560801389056   -0.12188322501532    2.57998852308008
H          -1.23672952066080   -0.27192614774919    1.08933908923253
H          -2.13119655725305   -1.29290936704966    0.38789783386886
N           0.50448647851086   -1.57929679110174   -0.75963017662758
H           0.45195897142325   -2.40699204211700   -1.34426465013705
H           0.20495215954903   -0.72339708900068   -1.28508422951820
H          -0.18783234419725   -1.63153207384409    0.05516306927474
