    23
        -45.37304260  Gyration_radius:  2.28352986997 Dipole_moment: 3.000
 S          -1.37144327135366   -1.06957716429106   -0.17490619441763
O          -0.75852314666582   -0.45896545529534   -1.35297199932682
O          -0.56242338036045   -2.14376739182017    0.35933946681022
O          -1.74791157085204   -0.08880797043028    0.82682859661709
O          -2.71258164539516   -1.72573959819540   -0.69877140522531
H          -2.99869779976976   -2.21170183650951    0.06728100195605
O           0.74023696875257    0.61066326247537    1.62093775331732
H          -0.18200390131155    0.30801117047476    1.56119304805170
O          -1.73186190271399    2.61857148018039    0.57463197382208
H          -1.86869909430568    1.65353667690891    0.62544468392027
H          -1.78796026893725    2.93691667544311    1.47714491424975
O           1.95451810350112   -1.62270055329492    0.95764725257349
H           1.70265496125748   -0.80539043862659    1.45195845848117
H           1.09035300203558   -2.07618854105496    0.84972818713609
H           2.05001577337716   -1.04768937325109   -0.38601382153873
O           0.50124460673400    1.89135771096822   -0.80271736465051
H          -0.07986098545312    1.18202428057710   -1.13046257413033
H          -0.12905006052021    2.53177830193567   -0.43289072407288
H           0.83963103565541    1.22395104898773    0.86953024938104
N           1.85174738991059   -0.55037847404070   -1.35946308346180
H           2.37087848271242   -0.95777007290269   -2.12944742253298
H           2.02649575813700    0.45370492278229   -1.28140559116066
H           0.80324093557474   -0.65183868099145   -1.49261541580023
