    23
        -45.37304286  Gyration_radius:  2.28352409463 Dipole_moment: 3.000
 S          -0.56493198419835   -0.90612388951159   -1.38498477302097
O           0.71492607260144   -1.57980386430617   -1.42843592888882
O          -1.21967895985929   -1.06213697142160   -0.08763854153777
O          -0.49182772461338    0.48089324053893   -1.80725933422761
O          -1.50717437279032   -1.64838482449651   -2.41688933873325
H          -0.98023089191599   -1.62145301926324   -3.20830331873865
O           1.33302969395086    1.33347718180435   -0.00382042948916
H           0.83289276452031    1.10580608403738   -0.80622797186255
O          -1.68756025613147    2.63061131668893   -0.64778312859048
H          -1.37077413397435    1.85257820228313   -1.14479815509602
H          -1.22089476787117    3.38219814388348   -1.01693768288220
O           2.49029023735042   -0.98437045374258    0.43062072621855
H           1.41505292885017   -1.22441941743064    1.39481983504159
H           2.05178077327650   -1.36766328516632   -0.35996399183486
H           2.35701076838428   -0.01475936450571    0.29563513629451
O          -0.95953493641154    1.13082462045281    1.50465008429677
H          -1.27262471649851    0.39575861524034    0.94798592855413
H           0.64813232848331    1.44146287377560    0.68160073036018
H          -1.34575934635123    1.90943746623138    1.07006399836055
N           0.43763744561506   -1.31322280286387    1.91595616997988
H           0.21416323882689   -0.43683577934880    2.39219350296394
H           0.39386136692501   -2.10188740088791    2.55189912270688
H          -0.26778551816633   -1.40198665199162    1.12761738011955
