    23
        -45.37304282  Gyration_radius:  2.2834401805 Dipole_moment: 2.997
 S          -1.22498093730980    0.99957791652139   -0.74739827005013
O           0.12249085768359    1.52378328605700   -0.53351632921202
O          -1.27234449002010    0.06561638842307   -1.85157995000588
O          -1.81542818236349    0.47175907336510    0.46924040789842
O          -2.09432092033026    2.25189119566152   -1.17059568480901
H          -2.91712312609589    1.83938127459399   -1.41052181638614
O          -0.25312334791557   -1.71934505510241    0.73349921951849
H          -0.98764892955630   -1.08893940534801    0.63979208712747
O          -0.84778243543961    0.67335232106512    3.00226319054623
H          -1.33581467110628    0.00838037278620    3.49080291674267
H          -1.26670219341686    0.71546863292306    2.12169339588367
O           0.38011741724543   -1.99036858566000   -1.80120811580906
H          -0.32760193075194   -1.36068680390009   -2.06014560962587
H           1.43580164197250   -1.01167093449544   -1.53723119033558
H           0.13851604267370   -2.20619176009032   -0.86778757312927
O           1.41679159190599    0.31511118417290    1.53438083603081
H           0.45801604748807   -1.19724767210447    1.14872348675725
H           0.97523373674091    0.93158485547616    0.92346478539270
H           0.91758363089707    0.43550855132539    2.35937910193289
N           2.02818780689052   -0.13058733027242   -1.20850254738912
H           1.30508934392440    0.63843635302196   -1.09624733354415
H           2.75651324332297    0.12898016455755   -1.86460652158492
H           2.40852977352778   -0.29379402297031   -0.27389847589308
