    23
        -45.37304219  Gyration_radius:  2.28357462725 Dipole_moment: 3.008
 S           1.66857210112310    0.28271802324215    0.43515353786273
O           2.06261964432721   -0.72026431643089   -0.53065057040940
O           0.87468023756791    1.34682713023676   -0.17617063978340
O           1.03083952914149   -0.28007850355770    1.61138450635893
O           2.99701063570103    0.98713463280978    0.92787199119145
H           3.52413181246016    0.23811571658344    1.18439700838195
O          -1.00504998579028   -1.55504146796241    0.37044859649330
H          -0.22691253580008   -1.31009955682018    0.89985115664789
O          -1.17632354840573    0.65416341283466    2.89494669410850
H          -0.31249423079507    0.39466407280721    2.52196469696796
H          -1.44606105339651   -0.07375879767440    3.45729977851974
O           0.16415121134682   -1.86637608880293   -1.96071178349195
H           1.03501118428473   -1.63225318233491   -1.57202093669963
H          -0.38539014646854   -2.03832832473937   -1.15775263869578
H          -0.29690175969722   -0.50976825334171   -2.25893556161205
O          -1.79636138460387    1.07819259016544    0.27715772705009
H          -0.86683328343551    1.36493073186172    0.23184903823199
H          -1.52709395766785   -0.73311197882308    0.31934407289620
H          -1.97818843183274    1.08838944758068    1.23147851909933
N          -0.54422563722278    0.57337730235592   -2.22846094014088
H          -1.47041037407708    0.70940291157434   -1.81817002238626
H          -0.46951811773470    1.02632485900002   -3.13265525988181
H           0.14474809097386    0.97483965944233   -1.52761896069677
