    23
        -45.37304271  Gyration_radius:  2.28346864357 Dipole_moment: 2.973
 S           1.05611435509689    0.89826005331239    1.06523331396023
O           0.96062856740880   -0.18371066771575    2.02105198419914
O           1.54129905422375    0.43688537239552   -0.23394982661642
O          -0.16735614266931    1.67252084095230    0.95917777100870
O           2.17354120334091    1.88349544158493    1.59830540399442
H           1.85974154407555    2.07058708462363    2.47650613173444
O          -1.83042125439824   -0.34635197929942    0.27379863560818
H          -1.38234316156189    0.40602868907707    0.69668160767417
O          -1.36651383084585    2.56820290615547   -1.31119859756235
H          -0.87289199730775    2.36883934508148   -0.49311904889789
H          -2.25401192971746    2.79706847501013   -1.03007280439228
O          -0.45094061987707    0.11639729603625   -2.06154505335908
H          -1.55960489278249   -0.29103438148595   -0.66119637799546
H          -0.91703620485238    0.95752511669373   -2.20118536759784
H           0.33516787850690    0.38694873665854   -1.55456299995118
O          -0.45738656317206   -2.30722606825622    1.35578791623736
H          -1.21535744448939   -1.74811664982895    1.05757901390964
H           0.31691207928421   -2.31090685003421    0.11315292171084
H           0.09180550925392   -1.66492154225727    1.85574343359271
N           0.90686673252266   -2.03586776285713   -0.78744277267171
H           1.60815305160532   -2.72626924248027   -1.03211042607335
H           1.34374486083438   -1.10185299620792   -0.53445921453669
H           0.27988920552622   -1.84650121714183   -1.57217561398308
