    23
        -45.37304273  Gyration_radius:  2.28354708435 Dipole_moment: 2.989
 S          -0.43364765765914   -0.71758125842880   -1.53368933514391
O          -1.37825866395190    0.14943794326538   -0.83202484263566
O           0.63317310640580    0.03734013493872   -2.15478206640703
O           0.04867872992886   -1.80361782998656   -0.70010246123769
O          -1.26859586081185   -1.37698523324294   -2.70488899179971
H          -0.58793671406005   -1.82708611942317   -3.19349806123434
O           1.56963851216823   -0.33612344088028    0.98660124909673
H           1.22338366001742   -0.97611574832561    0.34150042752148
O          -0.85414226355691   -2.51956938137689    1.76283654851017
H          -0.16306494853379   -3.08706313179946    2.10807512275149
H          -0.61941130007122   -2.35433998182712    0.82996959309236
O           2.03891903555494    1.67557637469407   -0.63663286275737
H           2.16550089306392    0.98082532311624    0.05415069204442
H           1.71154793936806    1.15337676607550   -1.40095502603107
H           0.74955381363933    2.20363074476178   -0.18520441518009
O          -0.98385822948545    0.19850956136744    1.86141555629057
H           0.79291465179814   -0.09439346960135    1.52405210737761
H          -1.32560144762723    0.09345476992408    0.95565997318549
H          -1.07439926957241   -0.69574128437014    2.23047676764481
N          -0.31262662458209    2.33968052553067    0.11060913131386
H          -0.42804331675850    2.13421847340531    1.10521182583496
H          -0.82532473876530    1.56639564442435   -0.40577788256429
H          -0.67839929650595    3.25617061773373   -0.12300306967746
