    23
        -45.36831556  Gyration_radius:  2.34530624246 Dipole_moment: 5.171
 S           0.56310913595631    1.53345226635800    0.70782774289656
O          -0.25107057761696    2.71140991224931    0.42037856979378
O          -0.16669078869458    0.56129677581322    1.51096622577664
O           1.12302942466871    0.96281966393476   -0.49628130081705
O           1.78069014049022    2.02617407065562    1.58950293678765
H           1.38888593324026    2.43468114104714    2.35698537058482
O          -0.69437116486526   -2.47248753542761   -1.03211541422526
H          -0.66981048506642   -2.88398385920382   -1.89603733999445
O           1.12854856873119   -1.67762235340356    2.21906049377891
H           0.67488075371908   -0.82831890062294    2.05106565475850
H           0.43354772115698   -2.32204368298456    2.36823715468118
O           1.72875130136413   -1.67085492405581   -0.43686592043234
H           1.64632397622637   -0.70485275935920   -0.53296333713030
H           1.75193087458963   -1.81757064949303    0.52791792000946
H           0.24773425870982   -2.22675238769224   -0.81532145074427
O          -1.99504730817897   -0.31093688192588   -0.23980142969241
H          -1.45374622958863   -0.05029100136591    0.53412864318065
H          -1.62501961001368    0.74743902665336   -1.19314174701035
H          -1.61398173642727   -1.17277800843140   -0.53849069536312
N          -1.14653776905746    1.59901096377309   -1.71237404183369
H          -0.90701876814172    2.26301353142061   -0.90839534001873
H          -1.71143078630613    2.02012326945490   -2.44246695556491
H          -0.23270685490692    1.27907232259289   -2.04181576939927
