    26
        -50.45444084  Gyration_radius:  2.55489857409 Dipole_moment: 4.692
 S          -0.12717238215312   -0.87555676722530    1.10830598974469
O           0.14240681503828   -2.01667050055008    2.09731555947083
O           1.20405942369618   -0.74250760477142    0.37563910504563
O          -1.17005341517975   -1.26304059571152    0.20201669486552
O          -0.39358403803718    0.34618441056798    1.83449803265109
O          -1.29843381009311    1.87982735097569   -1.58089346605497
H          -1.52060086942370    2.78292158617237   -1.81193896933793
O          -1.19182320876486   -0.78273689657941   -2.49282026454474
H          -1.23141097948218   -1.12186577441268   -1.58314735247104
H          -1.39880262356260    0.15957714628794   -2.42026843905272
O           1.37926041804582   -0.61973665341513   -3.14953700043758
H           1.79896777661601   -1.41832478619030   -2.82592921210142
H           0.40612971236339   -0.76720010267366   -3.06313436200299
O           1.27520110080344    1.14889151846311   -1.21214937670713
H           1.24838034899551    0.11914363830667   -0.27985213901592
H           1.45151712271360    0.61460344101269   -2.03267704327908
H           0.35880339843909    1.48749180148022   -1.31937708672001
O          -2.61213578946073    1.11274904061084    0.56467655353818
H          -1.83094153599256    1.65495900981669   -0.77256350120111
H          -2.86296350869344    0.21321221746353    0.32981937439864
H          -1.85681662846223    0.99713363518760    1.17207591724940
N           1.74108375047751   -0.54839022321578    3.46069325677689
H           2.64690271099581   -0.46006984800480    3.01961975192094
H           1.85928924124829   -0.52668650522579    4.46498334071792
H           1.16103131524788    0.23410931445896    3.17045814138358
H           0.82170565462516   -1.60801786280274    2.74418648518428
