    26
        -50.45444092  Gyration_radius:  2.55370588176 Dipole_moment: 4.677
 S          -1.30873940735431    0.46047068708099    0.29698199870054
O          -0.66276781817442    1.06294675688856    1.44183192953329
O          -0.99715246358947   -1.03245836703644    0.27394333156687
O          -2.83057804363232    0.48661294890421    0.48865909651669
O          -0.97333132031523    1.06960602101251   -0.95828032612611
O           2.60755113393686    0.76796257386964   -0.57023557566435
H           3.51017728707144    0.95579413486748   -0.30888994109355
O           1.00453995529829   -2.47313975910490   -2.24655934070976
H           0.10551993372040   -2.80006710574635   -2.30629313755430
H           0.98390292527967   -1.54963275366941   -2.59716926735669
O           0.90168324083408    0.14035546444420   -2.72232754171850
H           1.66848004757831    0.42833126180815   -2.20748136231247
H           0.13022774891482    0.48502523468464   -2.24255601906094
O           0.99901831522961    2.71466734353711    0.16442451031972
H           2.05934126826599    1.54072655252664   -0.27028671659482
H           0.42601973134736    2.79723449120804   -0.60503727178801
H           0.45630887520618    2.22690314826389    0.81283974396732
O           1.41799122393157   -1.53948049417101    0.17123032125984
H           1.40078806505623   -2.04198883264555   -0.68746556043847
H           1.89307462783820   -0.70307046431369   -0.03103525868623
H           0.06529908129077   -1.24962634347441    0.28245007213020
N          -2.60699974820465   -0.40317236988437    2.88240159372533
H          -2.95112824425655    0.11858925335375    1.43532334044369
H          -3.15770962704545   -0.15768173201857    3.69443273487045
H          -2.42142395538099   -1.39724460388959    2.89775996679215
H          -1.72009284277769    0.09233694344734    2.91133867921891
