    26
        -50.46742639  Gyration_radius:  2.40236818688 Dipole_moment: 4.782
 S           0.39285163558245    0.44740429186901   -1.61617935268263
O          -0.30051169460534    0.33681645502028   -2.89727870999786
O           0.64186698675285   -0.87177095743295   -1.03516149076058
O           1.57711432582887    1.27123125977641   -1.62281120172003
O          -0.69503525899851    1.13847073064966   -0.70865462721371
O          -0.43802928063996   -0.85942786923825    2.38878564629123
H          -0.50676297873079   -1.30016950487252    3.23625374449407
O           2.71974852297718    1.29064062350644    0.71146130526750
H           3.43088594619748    1.93241497371687    0.68122109945226
H           2.34632214084772    1.25966877698324   -0.20865694148100
O          -1.58662363179340   -1.70686227452041   -0.00879711177888
H          -0.69543377597091   -1.57365174114947   -0.41491014480653
H          -1.47154991243661   -1.36957514207754    0.89580715701679
O           0.19772703302273    1.69343705805373    1.62741635699573
H          -0.33144796422884    1.42193000999991    0.18955357732198
H          -0.08504390764957    0.86854095396484    2.06252564264933
H           1.16045613805497    1.61909270771222    1.48048229880049
O           1.88956755834886   -1.29902970885780    1.27011926714498
H           1.54130173513304   -1.30989965123893    0.35556107948818
H           2.42403145631117   -0.49283518962492    1.30261127676923
H           0.45374404725085   -1.11151034367876    2.01511651373910
N          -2.57301692600709   -0.28233430275743   -1.95222769665782
H          -3.19951422319248   -0.78584907971235   -2.57241643341307
H          -1.61598581346240   -0.03353080107137   -2.44923572236711
H          -2.98293172536173    0.59220917517097   -1.63668261246849
H          -2.29373042322998   -0.87541043019436   -1.09390294008165
