    26
        -50.46066637  Gyration_radius:  2.40231997281 Dipole_moment: 5.230
 S           1.59286803005593    0.09757525692430   -0.59129218668296
O           0.29264742867445    0.15674956797973   -1.47417572908056
O           2.11751976239361    1.43006870606832   -0.46375380527786
O           1.14939135466620   -0.45008627933363    0.70789057315016
O           2.43704126455060   -0.86752769363152   -1.28078987150702
O          -2.48155364098858    0.08733511770346    0.65744638936122
H          -2.19051349295473   -0.75397448179616    0.28909293743161
O           0.53440544660678    2.92628103908240    0.98935798900068
H           1.19715501563597    2.37176164287701    0.50894749122941
H           0.87912157143674    3.82050100939006    0.97064758092097
O          -1.31546371987472   -1.95179252647747   -1.21597132861481
H          -1.97737651304976   -1.98114126861202   -1.90888573531189
H          -0.77819880372112   -1.14504237711797   -1.38164213683119
O          -0.56046009218064    0.73010963985943    2.40359318197492
H          -0.34041818458399    1.65923592005418    2.26293143928995
H          -1.90395634195281    0.26371170660352    1.43549858708478
H           0.12928847378183    0.24602593589505    1.91308334535406
O          -1.28091868935320    1.96070267704842   -0.76821186637069
H          -1.89771236211645    1.37218919599033   -0.26202639816715
H          -0.77107848518461    2.46190959554403   -0.10049520092692
H          -0.32258042258834    0.97278372779579   -1.22971381692588
N           1.09119655683904   -2.75341265100423   -0.29315458466588
H           1.46639132961623   -3.62736639564683    0.05772473207647
H           1.75981769540714   -2.20034434717925   -0.93503447745717
H           0.16010177506832   -2.85362078001724   -0.72802820346100
H           1.01328503384423   -1.97263193799739    0.43696109442287
