    26
        -50.45879055  Gyration_radius:  2.45004361679 Dipole_moment: 6.736
 S           0.88632733094172    1.06394873695103    0.81820388410836
O          -0.26954226122828    1.31905285635921   -0.08461244573234
O           1.96711928819419    1.97233947727234    0.51857167049155
O           0.46997316301530    0.97417449795029    2.18996692788024
O           1.42947409381963   -0.34635420249483    0.36022840361345
O          -2.58483081178796   -1.44314056771812    1.26766835499292
H          -3.11409471802059   -1.83767203424527    1.96212023523820
O           3.23561372693971    0.80700062916192   -1.40246086109806
H           2.89347436303999    1.36685964979984   -0.65314818383194
H           3.47790301688014   -0.02294770199475   -0.98325798806864
O          -1.21963283403090   -0.96136210165369   -1.23076163916221
H          -1.00319037900912   -0.16383652758249   -0.71513931264018
H          -1.96930601067081   -1.34822801354309   -0.76805011268703
O          -2.14239381647561    1.05524091788626    1.93154118148702
H          -2.09411231154636    1.55839407435400    1.11259364384274
H          -2.47105438518892   -0.48791993636757    1.52839585034728
H          -1.20716336454457    1.02320168339581    2.23272468843768
O          -0.06221492604980   -2.33632067867993    1.09443094202725
H          -0.97692136764089   -2.00776754201663    1.25527818106304
H          -0.09924887364408   -2.77899310726905    0.24229566291443
H           0.87266057577556   -1.07356978756714    0.75557415319824
N           0.79821619381933    0.73073247772255   -2.32778301863545
H           0.33171835788055    1.13680937335476   -1.43480053238075
H           1.84481987661161    0.67869688667149   -2.08535951739836
H           0.37945312693706   -0.19424180856428   -2.44515974482761
H           0.62695295600026    1.31590276880581   -3.13906045314298
