    26
        -50.45569028  Gyration_radius:  2.49453635215 Dipole_moment: 4.710
 S          -0.75349567478479    0.23000949125879   -0.78571929873038
O          -1.44757870615550    1.35868422174603   -0.01404341437053
O           0.12945107312485   -0.49769395722975    0.12763268122542
O          -1.77024787443916   -0.66934126850617   -1.34182538803045
O           0.02256928104928    0.84266448763721   -1.86421863311616
O           1.23306691164876    1.71341563829524    2.46029282032155
H           1.63026599335435    2.47989038289275    2.87696873483541
O          -0.42927249589438   -1.48927020698692    2.51474899938981
H           0.38406897359955   -1.35208119224532    3.00603905469679
H          -0.22306108851167   -1.22035830255429    1.59496694577581
O           1.18089741969410   -2.52920500645531   -1.16222103247167
H           0.86935346009074   -3.29298367654467   -0.67215210606324
H           0.90917190350003   -1.74416988799356   -0.62524936227885
O           1.14961548735833    2.51901701599904   -0.11668362142426
H           0.88221848190255    1.86903918012269   -0.79313361298633
H           0.41598986884853    3.13808289999070   -0.07574446233553
H           1.29923730136379    1.86761375269936    1.49256823460910
O          -1.36188414078631    1.03345537784251    2.47748334610776
H          -1.47972944501837    1.20298898181607    1.01648327835971
H          -1.28363308521287    0.06543858724998    2.61612077952396
H          -0.44515506492738    1.36468788477561    2.60671559385625
N          -0.17375040006592   -1.41210630291269   -3.13072655611958
H           0.45922916939386   -2.03822147900937   -2.56918541504234
H          -0.34393175935405   -1.72416597810886   -4.08022518520289
H          -1.05644994569157   -1.27138358208390   -2.50198340443597
H           0.20305435594523   -0.44400704166460   -3.05690896607769
