    26
        -50.45569026  Gyration_radius:  2.49458774025 Dipole_moment: 4.708
 S          -0.64378091531663    0.22902510189571    0.87736611562991
O          -1.41828929900849    1.44984342046427    1.12545975496785
O           0.19679708661346   -0.07943540285792    2.03464446101997
O          -1.60750980805527   -0.94661825283977    0.67717885018291
O           0.17884304578829    0.37995269365814   -0.32418988346810
O           0.56402373135399   -2.70825304063058   -1.69097080904194
H           0.77464577020992   -3.63611249857212   -1.80739800709232
O          -0.60401975563070    0.50520742731385   -2.84693095898867
H          -0.29497927102940    0.56160058819708   -1.91840073193130
H           0.09234288603900    0.04055265615145   -3.31686094220382
O           1.70460859349800    2.49801542142958   -0.03599990704135
H           1.43347064534455    3.07101155609912   -0.75622649824610
H           1.24032743600688    1.63916082791738   -0.19473404838651
O           0.77725894840013   -2.46860135287323    0.99112327003381
H           0.71775819093896   -1.57560093446277    1.37918775395533
H          -0.03519471084673   -2.90315538660813    1.26354604191835
H           0.76060740383848   -2.50265932221042   -0.75088828974780
O          -1.87412841467545   -1.59038473611196   -1.73827526540031
H          -1.67905838706977   -0.77776197525888   -2.25221081457794
H          -1.04758022860837   -2.11808621699777   -1.80979421544703
H          -1.78090937140997   -1.18055258865270   -0.32419853000061
N           0.53233096426628    2.47521525819498    2.32714342104939
H          -0.44996093457339    2.28735872772073    1.88672868128720
H           1.15216011364229    2.71330631096070    1.51051976555394
H           0.56236799689292    3.14241954431664    3.08992373674969
H           0.74786828336861    1.49455218382012    2.60425705923213
