    26
        -50.45656481  Gyration_radius:  2.59887074425 Dipole_moment: 7.468
 S           0.80018388437232   -0.27378524316512    0.58341037720117
O           0.10361163942529   -1.09016198601705    1.60206226734008
O          -0.34501207287831    0.66311277429940    0.06871089009559
O           1.80518322143379    0.57112834113062    1.18975625950758
O           1.29243430612632   -1.06872803954107   -0.52296369901917
O          -1.93062582351863   -1.02900378596285   -2.79384368017749
H          -2.88420295270129   -0.98048986982110   -2.71830261916477
O           1.32503298214576    2.03002343314656    3.26284061203211
H           1.62036397355543    1.58121670666335    2.42430742129754
H           1.93489517582488    1.73048008015594    3.93955253273762
O           1.99296465519476   -0.12781637241370   -2.91281908164500
H           1.91716484554654   -0.48160527348966   -2.00412165201410
H           1.89699355391959   -0.88253325870878   -3.49746927174345
O          -0.99185824250590   -2.37588072787498   -0.64231023036601
H          -0.07165694064790   -2.06197404207686   -0.72955937583735
H          -1.16739792970266   -2.26300740556946    0.29652959691725
H          -1.62239900188388   -1.58881636096960   -2.05071539277934
O          -0.33077694289860    1.10007919431845   -2.39808364046014
H          -0.95206016005445    0.39270643712795   -2.67727958457762
H          -0.29171051045483    0.88329395950124   -0.94839180984940
H           0.55528717606578    0.80846421775325   -2.70899670770098
N          -0.97041933820249    0.90834624130081    2.68239718670902
H          -1.24016683829261    1.36638782299468    1.80916985769023
H          -0.14698956662860    1.43647068209141    3.09562074086305
H          -1.75000202225946    0.81297057461903    3.32451556586211
H          -0.54883707098987   -0.06087807946092    2.32598342709020
