    26
        -50.46218798  Gyration_radius:  2.39303784052 Dipole_moment: 7.358
 S          -1.29562355750525   -0.23533929504087   -0.77329831921618
O          -1.89334998886856    0.39992738428209   -1.95220527552232
O          -0.75254725460380    0.78321042715923    0.14134087280745
O          -2.14953999594582   -1.16573283581063   -0.09598571736585
O          -0.04468837128923   -0.96555434827793   -1.36404530101301
O           1.59593405561522    0.72310171606472    2.14379213113385
H           1.47378869560578    1.52516974486786    1.62959247370135
O           1.50981781019511    1.44023829950988   -0.90532656061436
H           0.65345324469055    1.26892292949923   -0.42795318792767
H           2.08605437186462    0.70697557930504   -0.66860009252953
O          -0.75556048085582   -2.37017663378757    1.86708423119731
H          -0.85025565214920   -1.63285257844331    2.48952858971593
H          -1.36880095954463   -2.14800472334630    1.14153758295689
O          -1.09503471203728    0.26844170730646    2.70706645310781
H          -1.06662382693394    0.45909580488759    1.74169107059124
H          -1.97539749061463    0.50621189284387    3.00018630230026
H           0.76485077963615    0.58561555048553    2.62249235442509
O           1.40474954772270   -1.51896570151071    0.62447027384868
H           0.73283539419578   -2.03070305824212    1.14163405656306
H           0.56041342273403   -1.24428323752000   -0.58298210117714
H           1.58894890509219   -0.73055440455878    1.17986684950347
N           0.19537369961414    1.09285242423692   -3.16828119379542
H           0.84445547069414    1.29551161314653   -2.34861182195991
H          -0.78859546836057    0.82157295673058   -2.68596630039811
H           0.10183022158392    1.89230267124857   -3.78663332426528
H           0.52351213947526    0.27301610491591   -3.67039403605865
