    26
        -50.46218815  Gyration_radius:  2.39352930089 Dipole_moment: 7.380
 S          -0.03171337805693    1.01252559369069   -1.14633236291904
O           0.69855855320102   -0.32874504709087   -1.48472559064798
O          -0.92195899007349    1.20186583601664   -2.29635433652424
O          -0.81369071574796    0.73090838417628    0.06943982917714
O           0.91757254793214    2.06659256905827   -0.94318245116168
O          -0.16436117411545   -0.91328633175789    2.60816273727892
H          -1.05439614417170   -0.98955714329687    2.25506893256070
O           2.57729808501141    1.38320779309023    1.06263365517529
H           1.95536503249586    1.62813258439737    1.76483652911728
H           2.17090983982989    1.73948214876621    0.25034644600817
O          -1.42292214365289   -1.76607981129025   -0.12622972637414
H          -0.60516124872728   -2.21375062085060    0.11170711688669
H          -1.25357373366917   -0.79944704860145    0.03985443786499
O           0.10764010576642    1.83937122445527    2.27914049513071
H          -0.03024027936471    0.02904972928452    2.79001173003101
H          -0.16857207539597    2.75315198711690    2.35649924736646
H          -0.24588187909991    1.51786005288874    1.41829206603556
O           1.74211281626570   -1.08534921547325    0.68286337904594
H           1.17263270450886   -0.65727225949678   -0.63532968413716
H           2.26626170283124   -0.26715882616454    0.87418491316160
H           1.08758175853529   -1.13037020965084    1.41325995815102
N          -1.61868652497422   -1.18098526430259   -2.69340673569698
H          -2.52228969931293   -1.30801382479984   -3.13799551326901
H          -0.87607528400510   -1.61421754882187   -3.23452962774236
H          -1.36012400279086   -0.08758817302982   -2.57981117984807
H          -1.60628587322862   -1.56032657830863   -1.69840426466718
