    26
        -50.45569030  Gyration_radius:  2.4947043791 Dipole_moment: 4.711
 S          -0.31434021588908   -0.25055069148513    1.03711650464652
O          -0.03033900321333    0.49408758178052   -0.19095664920877
O           0.86549954584111   -1.18211983776698    1.33911689439914
O          -0.50175827242047    0.66996906941172    2.16371579820502
O          -1.50406542042863   -1.08444875148260    0.86337188514633
O           1.90167036485315   -1.48937138287182   -2.16324941175249
H           2.22081161124480   -2.23107949016110   -2.67984663141273
O           2.14758941688592    1.85421866158609   -0.82325644041991
H           1.29319637903375    1.44259751580589   -0.57541428858671
H           2.23878831860078    1.69792138231661   -1.76613115776310
O          -1.97860075938303    2.20617659252418   -0.60342253003750
H          -1.25207795253293    1.53531173795880   -0.58116296109424
H          -1.53894842315829    3.05859113357502   -0.57762666800067
O          -0.18759418989765   -2.62191058954533   -0.87928633051820
H          -0.77270996012889   -2.04397244561847   -0.35467167218756
H           1.04839742490546   -1.77950820285010   -1.77284277208545
H           0.28111046011139   -3.14631354877650   -0.22471032421565
O           2.96031400247999   -0.53430804987819    0.10920714417965
H           1.75860023344635   -0.88603764746662    0.88958458696340
H           2.72059641758888   -0.94272795706816   -0.75245216361248
H           2.88246130257101    0.42928849201979   -0.05776210288164
N          -2.91267225534342    0.98499883808687    1.54014069028489
H          -3.72414051785780    1.18084640779786    2.11550708689098
H          -2.85018139762066    0.00085214480530    1.20479929689848
H          -2.80915340108676    1.60947713825028    0.69920920049147
H          -1.94245372862979    1.02801191899540    2.04102301564769
