    26
        -50.46218810  Gyration_radius:  2.39338260866 Dipole_moment: 7.366
 S           0.76219164804346   -0.11424171490844   -1.32069965076975
O           2.17872659800318   -0.15560894924217   -1.10761433211761
O           0.35537615118081   -0.03380767678255   -2.72737198534122
O           0.09360491662298   -1.44332095969005   -0.83756132172935
O           0.11638819367380    0.95125131861398   -0.53549657194562
O          -0.74862955736719    1.09491283959861    2.43008012820249
H          -1.34263355741706    1.48289608380310    1.78264716081529
O           2.66403801137631   -0.54483303895460    1.51111214002495
H           2.52181615970627    0.38286244171922    1.75416496645460
H           2.68732278221812   -0.53388224125783    0.53581595694377
O          -2.26893210692064    0.07262563640416   -0.10818832197895
H          -1.38168347817894    0.50790457777856   -0.22650451925867
H          -2.14483977536774   -0.57533624555148    0.59217560775413
O           1.63027138916781    2.04037034140782    1.33083560483293
H           2.21559077122592    2.70537632394851    0.96665128968959
H           1.13268977950639    1.66554027170036    0.56842224296571
H           0.09950012662828    1.55008009498897    2.31897226037749
O           0.16288036880936   -1.35082297456525    1.68170866603091
H           0.13298383194452   -1.46704638617437    0.18814876955202
H           1.13903526723396   -1.21921939814119    1.78520785877585
H          -0.23190355630632   -0.52317229129003    2.03240371246925
N          -1.99339948481999   -0.91144540232005   -2.54250817650289
H          -2.64130439388133   -0.59346762589979   -3.25618062646637
H          -1.92379465329339   -1.92483570059693   -2.53096749048883
H          -0.95418611411513   -0.50387190711486   -2.71138218977040
H          -2.26110929773833   -0.55890741747419   -1.57387117850291
