    26
        -50.44930442  Gyration_radius:  2.54932728687 Dipole_moment: 3.603
 S          -1.46489574869891   -0.48201089825061   -0.67202455026850
O          -2.64287945568297   -0.98788307025176   -1.54730513599976
O          -0.23093632663747   -1.04813721932465   -1.22159091498253
O          -1.44326735972707    0.96589937243699   -0.69338205005957
O          -1.71425036909403   -1.00722438166853    0.67787462257180
O           0.24528900215392    0.67171013064283    3.20134380182128
H          -0.58965684063191    0.86023565419219    3.63410111431213
O           2.71455522601969    1.19558207569256    0.19984987784045
H           3.29272486725001    1.28808797406670    0.95937620262579
H           2.49559450503501    0.25212165074964    0.12637598515625
O           1.83411116529794   -1.43945149571678    0.17729800052242
H           1.04026707189686   -1.25487646778076   -0.42567543122226
H           2.26430647255471   -2.21197905923063   -0.19374969088499
O           0.24932405602178    2.04457978201686    1.04253599431183
H           1.11270890890003    1.90498508177874    0.61040214046436
H          -0.42664531982890    1.72060228017284    0.40960029623139
H           0.26451187814192    1.26424683316815    2.37566917816974
O           0.16334201038381   -1.59279850730193    2.14136079112253
H          -0.70482517708281   -1.42255227819517    1.51499256326742
H           0.92553510938336   -1.60843254207364    1.48306168599431
H           0.23809560154446   -0.67877448953711    2.66840208558926
N          -1.50561867691035    0.37318798015805   -3.45818061647500
H          -1.40343269904014    1.08518252140056   -2.74056192376551
H          -0.63145082133936   -0.13695819295618   -3.49103275820971
H          -2.42621280642180   -0.57771877548884   -2.42583708355324
H          -1.65629426349814    0.82237603129902   -4.35290415458130
