    26
        -50.46212397  Gyration_radius:  2.38565975537 Dipole_moment: 6.910
 S           1.16537467358021   -0.13124325979270   -0.82929409508826
O           0.39969136556470   -1.01417910582199    0.06486879103323
O           1.47463910641279   -0.80823882762465   -2.09185972516462
O           0.16137892019643    0.98737413894651   -1.26500530435649
O           2.30008713790544    0.44646445068685   -0.16908637821676
O          -1.40170455201058   -0.55684582109369    2.32739539982604
H          -1.32190451136481   -1.27301386007810    1.69064747812403
O           1.44941746006228    1.99354953548926    1.86756132308533
H           1.44357999476064    1.23875019781088    2.47639223701127
H           1.90807553834487    1.64647669392717    1.08011375042033
O          -1.99600924540852   -0.90825320019390   -0.90780431691578
H          -2.35051777295345   -0.10091968577589   -0.52339681614213
H          -1.10967353949265   -1.03779907750886   -0.47939695948399
O          -0.97682103794986    1.69207034987463    0.87625200661227
H          -1.24485869156773    0.91492392117443    1.41588057018631
H          -0.16394770902976    2.03161867411483    1.32548125992700
H          -0.31088959485003    1.32889858028342   -0.42153155799268
O           1.39998329109954   -0.70555758238043    2.53128564416162
H           1.12240789322093   -0.84844111408464    1.60215046567616
H           2.33139308598957   -0.92944635138110    2.55816823292886
H          -0.56915895291433   -0.56504619614326    2.81711709846043
N          -0.76765767403793   -0.68632010308871   -3.22688748409176
H          -0.95296563071923   -1.39793678945857   -3.92654289672039
H          -0.84918006011573    0.24818362706730   -3.61672125835493
H          -1.40782195326970   -0.78031288456272   -2.38017627449629
H           0.26708247859094   -0.78475629045790   -2.79561118041731
