    26
        -50.44930414  Gyration_radius:  2.54904038797 Dipole_moment: 3.611
 S           0.07731249868202    1.33108601700146   -1.02760532144445
O           0.25084284159747    2.34968901242999   -2.18601136856744
O           0.51730691886293    2.02884736729178    0.18899038910379
O          -1.31249997553853    0.93185465864988   -0.94886167220763
O           0.95192862441314    0.19008859337881   -1.30757890145729
O          -0.58536800495495    0.37759432429467    3.20562736164218
H          -0.98907678065086    1.21474480276621    3.44251720184800
O           1.87342256666288   -1.30085888373683    0.50990641333839
H           2.73255186248887   -1.59556026481155    0.20230699538134
H           1.48652725674223   -0.75233699923102   -0.24975615027579
O          -0.43477923671226   -2.79557385339084    0.90599219013279
H          -0.37075020737988   -3.17654249142904    1.78374495877585
H           0.41693223745817   -2.36588234523423    0.72313439887200
O           1.57673594862344    0.77952046858719    2.01277802299014
H           1.79447239431611   -0.08941439056395    1.55258452667854
H           1.18300742650034    1.39531541133338    1.21160213399184
H           0.71501783824347    0.60274768254398    2.59990736186990
O          -1.90833966191667   -0.50452514230207    1.20140935523211
H          -1.15169735128342    0.00639734249515    2.44751433847369
H          -1.77401070527063    0.05685247772413    0.40812058702681
H          -1.54443786285686   -1.38118063959372    0.97609119206238
N          -0.75383846730632    0.46581222691051   -3.68204906236154
H          -1.21894240629613    0.26464528733117   -4.55857789390517
H          -0.08587832076999    1.82670380362665   -2.96059348299953
H          -1.41871188092916    0.36370023154597   -2.92057304208501
H          -0.02772753273121   -0.22372467762396   -3.53062053211587
