    26
        -50.44930433  Gyration_radius:  2.54913735369 Dipole_moment: 3.608
 S          -1.47785512376192   -0.70724205728994    0.38251405636687
O          -2.92668209704939   -1.26089269057961    0.44816235332529
O          -0.63032852217094   -1.72575335458124    1.01848971213407
O          -1.12542093088663   -0.55830129153933   -1.03130137173067
O          -1.41963731427052    0.55883426232735    1.08316432073711
O           2.63004028862957   -0.45758372486912    1.90622348746115
H           2.43050906097143   -0.74739602335671    2.79850266785060
O           1.95144354391077    1.94078546201495   -1.12248102981969
H           1.71514777386122    1.07229592834493   -1.48762489793682
H           2.90781427718728    1.96271742050474   -1.05494832178885
O           1.25702304407248   -0.64574325668230   -1.86214419098778
H           0.29283238280062   -0.55969635434298   -1.56080334509121
H           1.21831143840384   -1.02797402330273   -2.74075911993821
O           1.67258224314921   -2.07103804983827    0.25163238093398
H           2.16166528232145   -1.43965606599349    0.94531231760003
H           0.64218263398060   -2.01612644055222    0.58299836300125
H           1.66077507561537   -1.57841522856167   -0.62689564537365
O           1.04227186152328    1.48919626471986    1.42255691289071
H           0.10964703552633    1.18868819288349    1.37323984152590
H           2.03688530554991    0.35162170035712    1.74314104077197
H           1.26284481343584    1.83174390983674    0.53615569397770
N          -3.59332823080943    0.99665598564496   -0.67297642153441
H          -3.07358878641058    0.88067608630427   -1.53440253706684
H          -4.35353824138142    1.64566889199029   -0.83423396332262
H          -3.44014011403808   -0.51981884840628    0.03099905013776
H          -2.95145669015373    1.39675332496146    0.00547864587033
