    26
        -50.46259452  Gyration_radius:  2.42188139256 Dipole_moment: 8.964
 S           0.15771685087786   -1.66985501480489   -0.92387738024831
O          -1.06271365325406   -0.82316884857557   -1.06565475301932
O          -0.17348084362736   -3.05461307372276   -0.81691616199938
O           1.13542963624658   -1.29884193005363   -1.92917615400480
O           0.82096109079877   -1.18671816508791    0.42705869351687
O          -0.40940829450961    1.87488854907155    1.58522899857308
H          -0.44565446439448    2.52258039065568    2.29007876364476
O           2.01290098698983    1.07917513138748   -1.68212304556076
H           2.64716851599975    1.20171433544921   -2.38990934917844
H           1.71733653405337    0.11564333394363   -1.75491538532829
O          -2.50240348435518   -2.37325968117694    0.52241150590927
H          -1.99367915366993   -3.17736670082599    0.36496666206534
H          -2.19832717321425   -1.78295338057988   -0.19150558470447
O           2.06961724849250    1.13244001067137    1.09407142226242
H           2.25862720200748    1.30513861531796    0.15798156333650
H           0.54442196209162    1.59531298185623    1.51457061314985
H           1.91206345741121    0.17630664807577    1.12048818070502
O          -1.01766616055897   -0.95281707737104    2.18841000795076
H          -1.21009414924838   -0.01682643038945    2.05148273734972
H          -1.72355024568623   -1.47673857360433    1.73676703360781
H           0.12921093693337   -1.20164247023114    1.15948135338421
N          -0.54221619518601    1.64442489830540   -1.10300944635696
H          -0.60970628442605    1.92723932569187   -0.10560176045161
H           0.44910544481580    1.67390407572139   -1.41799673351672
H          -0.81617651852457    0.56989826371104   -1.13476236560991
H          -1.14948324605934    2.19613478656630   -1.69754940547671
