    26
        -50.45234038  Gyration_radius:  2.54414283455 Dipole_moment: 2.491
 S           0.21841080239544   -0.12915750418098   -1.57607080166846
O           0.34767738138162   -0.12129903351726   -3.12074865371789
O          -0.34242997266487    1.18692662561424   -1.19245909361537
O          -0.69879349110985   -1.18922335576024   -1.18692148734619
O           1.54485075226914   -0.30408450803653   -1.02353952512460
O          -1.36355575762224    0.45788439442300    2.37352172916521
H          -2.29406391300737    0.47784548774347    2.14578816614708
O           2.24060822579306    1.08062522277312    2.19560551826847
H           1.98690306587158    0.97849464248848    3.11574902541384
H           2.35523340711518    0.17178834671075    1.83506358583993
O           2.29594671112303   -1.38673544198403    1.17527928710192
H           2.02180177033311   -1.02325323290521    0.28935568387307
H           3.10472595878047   -1.87583204761395    1.01596783432386
O           0.13892451032858    2.02374016268869    1.05372293782534
H           1.05474125016567    1.73061075537329    1.38486391619591
H          -0.01738301562666    1.68571349043989    0.01997542285613
H          -0.52443107621285    1.46935311616618    1.61251765872162
O          -0.46586483798863   -1.75390960842026    1.38446963725119
H          -0.61496148817486   -1.64391807059052    0.41872404887266
H           0.49389700643205   -1.82817388043990    1.48612651182518
H          -1.02471833105462   -0.43798742266721    2.06572635855728
N          -2.24766756490568    0.10388181663196   -3.16756926104039
H          -0.59982894645777   -0.01471253318599   -3.40427644096822
H          -2.17780988760779   -0.55648367529161   -2.39809227298556
H          -2.37921626912106    1.02407537982240   -2.76726915062486
H          -3.05299630041690   -0.12616913622875   -3.73551064511520
