    26
        -50.46255575  Gyration_radius:  2.40940998455 Dipole_moment: 7.222
 S           1.54847629482765    0.15399230956556   -0.97734543554006
O           1.17011691179097   -0.35724576455407   -2.29978931180801
O           2.89296150739873    0.62396918983258   -0.87021366512376
O           0.53851609277796    1.12518303007756   -0.52706596741235
O           1.43252204647695   -1.07576115043107    0.00565231313353
O           0.65776364899747   -0.27271611546854    3.10041481422873
H           0.84016749880151   -0.00293197235418    4.00147179827161
O          -1.92045856631849    1.64341972038178   -1.36151230797108
H          -0.96095634748325    1.69846406692151   -1.16123540806040
H          -2.34768674991392    1.60023560875566   -0.50029384152499
O          -1.20852476408282    0.36917904462917    1.30093862482242
H          -0.68760349625842    0.16072162910070    2.10425165815521
H          -0.53750241940442    0.73690480428477    0.68206823826766
O           2.32832341372250    1.25952963823592    1.64635158321864
H           1.76600984200030    1.99262271255643    1.38224741753563
H           1.36016524251820    0.14238977975314    2.55090963956919
H           2.70645917770159    0.93669382989181    0.80660019065521
O          -1.14632480783094   -1.92241478476352    0.14467126845631
H          -1.30155793887310   -1.06078807323238    0.64941173870989
H           0.52724135366652   -1.44111151951085   -0.00933075781027
H          -1.14882213953311   -2.62120686782409    0.80044021800225
N          -1.33362027763604   -0.75590146350711   -2.31217918692433
H          -1.47668779592699   -1.42143383588465   -1.54066506974256
H          -1.71739454542614   -1.10017563695006   -3.18497318108867
H          -1.73823196196322    0.18309109970812   -2.03996697176898
H          -0.24335122000737   -0.59470928909688   -2.39085839823958
