    26
        -50.45514573  Gyration_radius:  2.45824707108 Dipole_moment: 5.597
 S           1.21470463589590   -0.50710797781190    1.46208313729691
O           2.36393751954501   -1.34852192115849    1.58104574658321
O          -0.05132338121302   -1.40704034675538    1.43452056374395
O           1.04423177292955    0.33319691989152    2.72978168666027
O           1.17734265268770    0.35317329725186    0.31007531105273
O           0.09247977910875   -1.38991103615138   -2.37868588072055
H           0.00289307467870   -2.00999710450376   -3.10419736804932
O          -1.45186422269407    2.01613816409461   -0.74100047212419
H          -0.62535061389041    1.86161222925496   -1.27972386491262
H          -2.05863138477482    2.49023366460367   -1.31145719197613
O           0.67946584931418    1.33774732090022   -2.10871547053036
H           0.47422893113686    0.46222799637295   -2.47053922982339
H           1.14540609670383    1.13267406237879   -1.28138503647796
O          -1.64343631677103   -0.67084322679855   -0.39746928405788
H          -0.72689438767456   -1.09443146786415    0.72758659771123
H          -1.64494369029305    0.30709407569622   -0.44230162940017
H          -1.12795172628089   -0.95849353792082   -1.17583909588603
O           1.56767498828007   -2.71247188463140   -0.58648690847698
H           2.05925571266164   -2.22630088252761    0.10028779202501
H           0.95435235822151   -3.26984832317202   -0.10036305754288
H           0.73017395632473   -1.79792016324283   -1.74652585783711
N          -0.90436335523190    1.87400768534734    2.13795151480385
H          -0.83042003256754    2.79454792060117    2.55075222682852
H          -1.77423721795170    1.45173096952240    2.43638836411667
H          -0.92673513756236    1.97299572490744    1.12418111545260
H           0.26000413926966    1.00550784170536    2.53003630149783
