    26
        -50.45234213  Gyration_radius:  2.54418197753 Dipole_moment: 2.490
 S           0.31590761968802   -1.28557840805902   -0.90520649279529
O          -0.72406193474603   -1.64651339373869    0.04616790143508
O           1.58503168815582   -1.00529535709470   -0.26815235866470
O           0.52999265195903   -2.46682499298476   -1.88535313393960
O          -0.13031917241150   -0.13454013559803   -1.72404210699280
O          -1.49275018493047    2.06090641074785    1.07255731727309
H          -2.39967673980149    1.88535012724289    0.81804164164977
O           2.11345641850566   -0.00620202382611    2.03252573571745
H           1.92404896331429   -0.45129699720729    1.16175434484547
H           2.89718641942844   -0.43628169865313    2.37831822689259
O           2.15832388722863    2.37670330439646    0.83190741485745
H           1.84367504980201    3.00652974804651    1.48444500551766
H           2.23281733684464    1.50999837644968    1.29341429852459
O           0.20378130496520    2.11119401501050   -0.81742671211288
H           0.11277722682388    1.10852277866009   -1.26048552670300
H          -0.53391911763932    2.15520343245064   -0.10087876311777
H           1.07213003538128    2.18361916738192   -0.29329911156709
O          -0.67371957625755   -0.11456022816872    2.19902039028866
H          -0.75598364887797   -0.76345539512508    1.46474522650928
H           0.27181292016180   -0.07935019882583    2.40312992292872
H          -1.19133077024743    1.25179478920953    1.58910512789523
N          -2.02151444827432   -2.29304410518128   -2.38201183931248
H          -2.81587664482732   -2.85122947177795   -2.66732021341132
H          -2.07318954298544   -1.39004831450171   -2.83616875691643
H          -2.06396031759153   -2.13304829501091   -1.37925837871550
H          -0.38463941366111   -2.59255314383090   -2.25552917007177
