    26
        -50.46121082  Gyration_radius:  2.41335700083 Dipole_moment: 9.245
 S           0.55246578243219   -1.72872902004040   -0.87212270790158
O           0.41033714002939   -3.14369872539184   -0.92604595775446
O          -0.72362347274373   -1.03042307417359   -1.21061084277753
O           0.83075943288476   -1.36095840752156    0.63964534679881
O           1.63400826047142   -1.13239674035729   -1.64205219311647
O          -0.87675414363548    1.76687503472608    1.45239889705621
H          -1.29588716728552    2.35194599317796    2.08454632421644
O           1.86019803113589    1.39570718255249   -1.76977598331324
H           1.79224193093031    0.38629962917259   -1.76066249718254
H           2.57113419795175    1.59634933361811   -2.37962718983897
O          -1.89814022517267   -2.49816456446802    0.63515463542070
H          -1.28966066714690   -3.24320466818240    0.60987764843971
H          -1.63813586005218   -1.97731365213368   -0.14569867228881
O          -1.18984498395571   -0.62256871747677    2.40834266456139
H          -1.04737617101161    0.83424942614919    1.79533588682029
H          -1.62876568409733   -1.28450624828108    1.82370022953951
H          -0.27913595591945   -0.93394260959189    2.44901171872713
O           1.77525855457858    1.06052653021725    0.94937325953392
H           1.29195265607261   -0.48639775513706    0.71920225074507
H           1.97251751116828    1.35286638254379    0.04425189095388
H           0.94739617078109    1.48828894394567    1.21981634962981
N          -0.76881481207601    1.48425914380106   -1.23410952676149
H          -0.78390514749625    0.36731129349673   -1.26085570805150
H          -1.48868883053897    1.86913364983168   -1.83418666162961
H          -0.91152673981546    1.74921922726674   -0.23947586377397
H           0.18199018251014    1.73927242225262   -1.55543329805219
