    26
        -50.46255547  Gyration_radius:  2.40898995408 Dipole_moment: 7.234
 S          -1.58239098236870   -0.93260281794280    0.04666727170813
O          -2.30694155255803   -0.43238549456807   -1.12723544617731
O          -0.21106187290686   -1.29278121122881   -0.34831994859586
O          -1.44032172161978    0.30233950592744    1.01968733576927
O          -2.25747084903529   -1.94890281932910    0.78917854544150
O           1.24032511751652    0.23671656493891    2.91942533533904
H           1.74977156507834    0.00468566932596    3.69701218574384
O           1.75406959252792    0.34569658767107    0.30064402034281
H           1.77495635139131    0.36981948735791    1.27989470821332
H           1.08023162662576   -0.34372155042916    0.10291025462139
O           1.22630621145004   -0.71379975601381   -2.49511435865507
H           0.69970388701560   -1.17918868631726   -1.80953683785589
H           2.00850796271911   -0.39954715172014   -2.03090620710858
O           0.07511852231122    2.23778364721633   -0.13950724187508
H           0.83887918583931    1.59294471448570    0.00908139553699
H          -0.97562666866838    1.03661099016387    0.57455506066888
H           0.16762023489596    2.92073592504398    0.52634875710629
O          -0.12389499866326   -2.01905837132954    2.37033340798766
H           0.60727267641843   -0.50422672453892    2.78498654620940
H          -1.01516990693369   -1.98492558884829    1.97450575108204
H           0.41709754843702   -2.42806402942138    1.68959255596469
N          -0.74166228823223    1.05506719810593   -2.45586999867068
H          -1.47755559094691    0.41025922785850   -1.94250473608574
H          -1.12980614254234    1.45053635391854   -3.30471707574157
H          -0.46984612080145    1.78349013768192   -1.78197142807330
H           0.09188822308241    0.43251818202203   -2.64913988291667
