    26
        -50.46255573  Gyration_radius:  2.40947991787 Dipole_moment: 7.222
 S          -0.82639467803870   -1.61917527790018   -0.26879537101998
O          -2.12362245156044   -2.21516008237287   -0.31361261657007
O           0.28690219029256   -2.52477986817456   -0.57517982805163
O          -0.69951470562489   -0.40250266793693   -1.08718615964582
O          -0.60472873849532   -1.15916062256417    1.22491301828932
O          -1.75530942925789    1.84833365698315    1.90450133808033
H          -2.41955197052472    2.48921923848943    2.16139040994743
O           1.31910190644538    0.59701443706323   -2.47887117903913
H           0.46809247991560    0.18540169502105   -2.21392946597341
H           1.28513357060896    1.48595294722121   -2.11182621611451
O           0.17975537035910    1.80361285815795    0.06417042011554
H          -0.23068182367755    1.04027580272452   -0.40208109509800
H          -0.48033872434306    2.03295817589960    0.75104998539336
O           1.70465017376878    0.25800792876817    1.43460759838167
H           1.73889176275172    0.55380943522212    2.34545119878516
H           0.26580004751508   -0.72844999005672    1.32432542809555
H           1.20144686049087    0.97084740785416    0.92477460895260
O          -3.10008050712617    0.18587459152845    0.26745807592085
H          -2.86904938304211   -0.76048137320585    0.20918748683835
H          -2.24268864233787    1.13155305274542    1.43932296241886
H          -2.88868112048646    0.53135487227879   -0.60398091959142
N           2.39911630802780   -1.14069755707699   -0.80007367153146
H           2.15512516217796   -0.43024567341513   -1.54526331110271
H           1.52227241806576   -1.80972107592508   -0.73316182892286
H           3.24005703771552   -1.65976022121175   -1.02586527403407
H           2.47429689609505   -0.66408167057603    0.10867441607332
