    26
        -50.46742653  Gyration_radius:  2.40214352701 Dipole_moment: 4.781
 S          -1.32636686496372    1.09516727226129   -0.07168498610661
O          -0.77233398397085    0.54590828121047    1.16567587865735
O          -2.51622730628142    0.39644243480043   -0.49241064714836
O          -1.44796934448839    2.54899334399006    0.00474376752266
O          -0.21851094737829    0.91253599197138   -1.17813178995970
O           1.91601239219075   -1.68693747276789    0.33495408951152
H           2.57651364406993   -2.32197202215642    0.61352721937758
O          -2.14275907168329   -2.17554420547533   -0.49982951350395
H          -2.92028986642204   -2.58092297422902   -0.88666649439692
H          -2.34208301496108   -1.20346439894542   -0.45176059179153
O           1.78234066729390    0.98212343333842    1.13350964774430
H           0.82929727771388    0.81503067903258    1.33522396713655
H           2.07076279878933    0.15106117258846    0.71912043692227
O           0.17046962551562   -1.54903860926727   -1.77195553154347
H          -0.62870561590846   -1.96051447070044   -1.38983845608114
H          -0.10836030408514   -0.04860830670715   -1.46652424546682
H           0.89730001582750   -1.70879809481509   -1.14296875757742
O          -0.34475691225785   -2.03722379833516    1.61102378155443
H          -0.56825986582017   -1.08512534262720    1.64820428058925
H          -1.00611469380272   -2.40493422236641    1.00767430845402
H           1.10693945455329   -1.86254941108970    0.89438626511881
N           1.02519592894121    3.06772583053655   -0.22867647314429
H           1.33911287712749    3.95678328488826    0.14772881943624
H          -0.06634024004719    2.93201107824678   -0.10557234506675
H           1.22669591632229    2.99039039802371   -1.22153293162561
H           1.46843743373141    2.23146011857999    0.29178031138142
