    26
        -50.46742655  Gyration_radius:  2.40216914603 Dipole_moment: 4.778
 S           1.33277357787391   -0.92664802577743   -0.57246091921908
O           2.36167135739975   -0.97976588627741    0.43719073088641
O           1.04285563101377    0.58429490030131   -0.91546475124258
O           1.70553468097134   -1.47180224824610   -1.87562216147412
O           0.06961859359066   -1.49613247432516   -0.10369903725592
O          -2.07997512858692    1.18176337868610    0.95161340639870
H          -2.90094634048913    1.47257562432193    1.34997205121977
O          -1.84158850750250   -0.31142926656451   -1.39267489842046
H          -2.01755573881205    0.41254311913157   -0.76782697292470
H          -1.23725796899111   -0.90639294820483   -0.88511537740839
O           1.50466480571592   -0.04085620339264    2.70419427352442
H           1.84899736888065   -0.46174295921980    1.87285548173587
H           2.25147174446187   -0.00153425187413    3.30355115666693
O          -1.09059598320282   -0.89306728947581    2.20811048402462
H          -0.30406268309302   -0.62837481768955    2.70602354618664
H          -1.79548773520562    0.37026846005928    1.46033364113521
H          -0.72534979484370   -1.31234793295988    1.40275923685803
O           0.53234403422907    1.97736248081462    1.17310471341232
H           0.85812952299098    1.38368208500008    1.87689847249532
H           0.90913235230579    1.15320683942160   -0.09236329196377
H          -0.43658279715361    1.87767068879893    1.14683767866275
N          -0.00851642577807   -0.18811258422213   -3.23730035551560
H           0.37865223578225    0.74413278754051   -3.35295684360590
H          -0.83980757783043   -0.14662763144514   -2.54898369758410
H          -0.27528424069470   -0.59466811118201   -4.12847507871370
H           0.75716500697226   -0.79799773322079   -2.72050149788440
