    26
        -50.46742660  Gyration_radius:  2.40216045053 Dipole_moment: 4.781
 S           0.32581830175277    0.23276833675130   -1.67457051007029
O          -0.34254762458733   -0.18022316551296   -2.90616865902248
O           0.44898446827407   -1.12941297859812   -0.89093849783315
O           1.64688651419770    0.78699316630391   -1.84364611300136
O          -0.53679523063611    1.09821851142287   -0.87041695819693
O          -0.56873092402753   -0.11972554966010    2.50853691674076
H          -0.84118758480210   -0.01554628815034    3.42081494326133
O           2.65214489993888    1.53423457757381    0.43347442733963
H           2.27839651254322    1.31690078136212   -0.46101038344289
H           3.56218015747730    1.79190377007149    0.27871422001306
O          -2.26978002927397   -0.41874049048295    0.31838364411156
H          -1.78404143322908   -0.58190705163686    1.14487186906728
H          -1.74205753997421    0.29478640717695   -0.11665405098105
O           0.15230591388984    2.16990771642764    1.45979050337687
H           1.11246809790010    2.18579748430805    1.33951308874458
H          -0.19020824071056    1.96411052467265    0.56639044569286
H          -0.35214372202952    0.79730000888638    2.17590261112609
O           1.76540411983415   -0.88173000829400    1.29284899875478
H           1.02439253926243   -1.05433298226039   -0.06483506745433
H           2.20135456392972   -0.01942300420043    1.15019614299857
H           1.00066686742558   -0.71780715183907    1.87398560567555
N          -1.93650016611879   -1.84064156927472   -1.83673822031096
H          -2.79006888677052   -2.04260765666317   -2.34789687280123
H          -2.13845414524681   -1.36291494115941   -0.88920645115425
H          -1.38785781406710   -2.68116291923184   -1.67896099029259
H          -1.29062964495533   -1.12674550799258   -2.38238062234266
