    26
        -50.46742659  Gyration_radius:  2.40215646928 Dipole_moment: 4.777
 S          -0.88699002441227   -0.02448239645838   -1.47457231601060
O          -2.23336868087926   -0.47967074599215   -1.22767122875749
O          -0.52229748365476    0.11783967777259   -2.88203495488818
O          -0.56752844819084    1.18801275868304   -0.72131551995552
O           0.11722589484235   -1.13518601527215   -0.98216731122156
O           1.24323441680755    0.26016120952288    2.23909940142765
H           1.64920455921363    0.50749931015706    3.07054188050562
O           1.98771349270889    1.18171419694995   -0.28697442596074
H           1.99240375854777    0.72992061966963    0.57402970186725
H           1.02968960475399    1.37312454030455   -0.43662472032612
O          -2.73389540172412   -0.60275351558783    1.31971170360141
H          -3.59601633703793   -1.00732410465980    1.42735355211770
H          -2.60035889013208   -0.51117803740724    0.33952710627332
O          -1.02689356546366    1.51536030707988    1.87403563629354
H          -0.92310754000146    1.59563290753967    0.90418954136934
H          -1.76235509318496    0.89453498079484    1.97563730685465
H           0.41256876662972    0.80985058074823    2.16008824904775
O          -0.32248960104960   -1.84115131845920    1.44089091092501
H          -0.09323910510087   -1.46784943236659   -0.05259127764156
H           0.29975139332007   -1.21846517146075    1.85878860642542
H          -1.21917722422639   -1.48002723521747    1.58034061423432
N           1.98698160474387   -0.08503791833588   -2.56162778579221
H           2.11956309486562    0.39788849721120   -1.60473473901659
H           2.16945197915459   -1.07979753621212   -2.46406810410432
H           0.90986224283866    0.02875593696393   -2.78972556517841
H           2.57006657662684    0.33262791403232   -3.28012627209293
