    26
        -50.46742659  Gyration_radius:  2.40205428477 Dipole_moment: 4.780
 S          -0.40226848699780    0.71934339141474    1.51138135830367
O          -1.51873314619872    0.02323425860734    2.10302203756223
O           0.74469260761507   -0.16195182154886    1.29344821615629
O          -0.83574103031928    1.24947969854013    0.09156261629923
O          -0.00073579493443    1.94940691488251    2.18951241517493
O           0.74473302614015   -1.22755245644340   -2.13674921972517
H           1.12146925079696   -1.76618197224805   -2.83327286136940
O          -2.04665324905575   -2.17220280631655    0.81642028297093
H          -2.85478383414387   -2.53578450732037    1.18144576358641
H          -1.83773545123690   -1.37320546745013    1.36880554250550
O           2.07365491737890    0.77692569765792   -0.72407387435653
H           1.73452458593794    0.34418963536289    0.09724800965212
H           1.64160497293765    0.27348732192974   -1.43500827359388
O          -1.81392227468849   -0.60209770214766   -1.38404000754127
H          -1.28505263668544    0.54100052507814   -0.47006978796738
H          -0.98279340031571   -0.85030540288022   -1.82798306652877
H          -1.99550360562194   -1.29347038549667   -0.71843311889898
O           0.61598005007809   -2.54325696857285    0.12462938214869
H          -0.30621081674214   -2.75861500850890    0.32423540502114
H           0.77029656134278   -1.78545478569237   -1.30814203685590
H           0.79885003195470   -1.76268382889113    0.68597686012213
N           1.14393771499716    3.02735018563777    0.19749671515882
H           1.85146422619698    3.72530032915762    0.40477262325881
H           0.39490953176413    3.41221073948004   -0.37104608834546
H           1.56302490973397    2.16512804006213   -0.30017734695909
H           0.68099131005512    2.62570635570413    1.11903846422992
