    26
        -50.46742653  Gyration_radius:  2.40213819689 Dipole_moment: 4.783
 S           0.08768471490446   -1.12035815102505   -1.30427434412363
O           0.81462214124469   -2.36831684079887   -1.52413180643318
O           1.00836739283869   -0.00002738234588   -1.11210934946299
O          -0.93716112576550   -0.82229115564162   -2.27477574956890
O          -0.60078017936473   -1.37855555239052    0.09010055644650
O           0.01517444697286    1.82024139179958    1.82116535008091
H           0.13041126708673    2.57187367126579    2.40340738672290
O           1.92075099395484   -0.15074456262957    1.30912654700579
H           1.26023590696347    0.40796948170667    1.75315344088225
H           1.73563672309734   -0.00063027567032    0.34994974014580
O          -2.07274013496603    1.46109646343225   -1.77361410898572
H          -2.81136627891655    1.55655353910993   -2.37682826327693
H          -1.62251104188294    0.61399045905039   -2.03194513741639
O          -2.16432361079405    0.53225481374438    0.77390563860715
H          -1.51185113879533    1.04024880607549    1.28931613074902
H          -2.27377823944371    0.99675617300149   -0.07830724656097
H          -1.27013038218352   -0.66328518444637    0.33384082940481
O           0.25855524171733    2.51312261480248   -0.69336902156298
H           0.68264411782330    1.67564932726125   -0.97024443695379
H          -0.60742005999697    2.48550086268561   -1.12456012947371
H           0.16327920280432    2.16082034282339    0.89352897995495
N           1.57734634430668   -2.69446705781815    0.87441747796752
H           1.30214512594476   -2.62231103463693   -0.19501906173134
H           2.40666936010118   -3.26356000321555    1.01225954841909
H           1.73359770246617   -1.67308002039139    1.18959749620643
H           0.77494150985631   -3.07845072578600    1.36540953292560
