    26
        -50.46742652  Gyration_radius:  2.40212676307 Dipole_moment: 4.782
 S           1.24574394477487   -1.18066679133892   -0.13528013605322
O           2.01981548140282   -0.94095972009367   -1.32873282175836
O          -0.16503046055717   -1.42759118205226   -0.43272666907159
O           1.78102772650962   -2.19969579745349    0.76426593214033
O           1.29405309450940    0.11367628599224    0.76325265835218
O          -2.00106249746419    1.61893738041387    0.06736262250269
H          -2.82619103561651    2.10229643553519    0.01487677838905
O           0.88523392974776    0.84032385239954   -2.84334054656653
H           1.31723866859420    0.11360805929218   -2.32144744978083
H           1.48882924777815    1.03826448183580   -3.56100786442387
O          -1.53987441231717   -0.65010132723446    1.62221317158053
H          -1.71555949818215    0.26581988939778    1.34676527412044
H          -1.16342003873082   -1.06281745990841    0.80684842022767
O          -1.65794400909356    0.08345821243182   -2.02705670298554
H          -1.21066986652974   -0.63317707944718   -1.53289717303976
H          -1.96897122886098    1.03338716655557   -0.74167312085032
H          -0.95784947032248    0.44777115338890   -2.58723006770048
O           0.60589169809442    2.21943197282842   -0.52354033320227
H           1.09102627281570    0.95635147200746    0.24582328977150
H           0.67401689656551    1.90415172788962   -1.44547508018955
H          -0.33936667108106    2.19833769951676   -0.28807506107720
N           0.62776959259302   -1.37413486821147    2.86891544401157
H           1.15540865606634   -1.81050909434098    1.99952707658698
H          -0.30808776281923   -1.01016090462660    2.47056608035139
H           0.48463384535426   -2.05842040101839    3.60506656394436
H           1.18333790676970   -0.58758116378686    3.19299972468973
