    26
        -50.46742655  Gyration_radius:  2.4020294493 Dipole_moment: 4.775
 S           0.87718081325371    0.56379931947743   -1.36881237242369
O           0.56291534962402    0.71059053426356   -2.78787717257566
O           2.26862438350018    0.72440520963057   -1.02354179496119
O           0.00416660880293    1.40037186081867   -0.54554095472468
O           0.45962729053075   -0.93032165827002   -1.08914608286813
O          -1.34139850693537   -0.61156986951516    2.10930254156558
H          -1.85807620176485   -0.67952757633830    2.91287395042942
O           2.63826992091320    0.50423368463747    1.53937945018700
H           3.58319807117685    0.51459078333543    1.69917843914735
H           2.52901768997554    0.65375611792256    0.56323112577123
O          -2.29030363516401    0.20531852390005   -0.38393603544642
H          -2.13441045288801   -0.30973618212342    0.42593210165457
H          -1.51672347379489    0.81970171056712   -0.41353721964474
O           0.13122119866384    1.55458901159711    2.10245419226398
H           0.05319026978160    1.70605191352128    1.13864195131924
H          -0.84608667696639    0.25425152699215    2.16900681144462
H           1.06154424514458    1.31649181093203    2.22301537501847
O           1.04515224108645   -1.67823461911494    1.29016685170978
H           0.18763043852006   -1.45615036747854    1.69621159043594
H           0.74973686031953   -1.25309394274381   -0.17771049788841
H           1.67296318800239   -0.97912414414064    1.55653465318230
N          -1.59639017424888   -0.62255246153675   -2.75274275608370
H          -1.31363943629610   -1.59834159898597   -2.76633403986327
H          -1.98347315112214   -0.37696000790418   -1.77464633254459
H          -0.67724966682542   -0.01470481075331   -2.85493313602007
H          -2.26668718301762   -0.41783474854468   -3.48717065935854
