    26
        -50.46259455  Gyration_radius:  2.42189558148 Dipole_moment: 8.961
 S           1.45446118321846   -0.26888186898286   -1.21682273533635
O           0.30713943186883    0.61795092836766   -1.56870590614620
O           1.17272167569294   -1.62931400419725   -1.63384608947029
O           2.69949033483526    0.29481966985041   -1.63019350762119
O           1.41959951583835   -0.35520258044375    0.36101696127923
O          -1.59382501254548    0.74346482250761    1.76154054361786
H          -2.08752157429357    0.97455279224024    2.54925991939836
O           1.69285123200677    2.82987740102611   -1.13752374838261
H           1.08191667706701    2.15711653587287   -1.49053440355209
H           2.55888917913470    2.44048313555378   -1.30656449339331
O          -0.80663190887902   -2.68489544780242   -0.42752493634211
H          -0.88504017162778   -3.57421437255552   -0.77573711844039
H           0.01554480533500   -2.29853989763135   -0.86970119904500
O           1.03903887119643    1.99782757911980    1.28714117519286
H           1.38672996169664    0.57665872328142    0.74241727942327
H           1.26868138068006    2.51545912172274    0.47718455720798
H           0.07659312928578    1.95858155036365    1.35035501365394
O          -0.33220855782071   -1.54894119170079    2.06137446247606
H           0.53846687506087   -1.24399291471514    1.76384850176793
H          -1.09241234416590   -0.08880401889383    1.98292183298326
H          -0.61782115276560   -2.14625623148366    1.35170248049789
N          -1.90355228545403   -0.25763945453317   -0.72788889647343
H          -2.00651782993306    0.18573462961029    0.20603757806645
H          -2.69326022004706   -0.06226799088069   -1.33188650339887
H          -0.96176525428121    0.14485568524541   -1.15451054644670
H          -1.73156794110377   -1.27843260094157   -0.62336022151591
