    26
        -50.45891849  Gyration_radius:  2.68193905408 Dipole_moment: 5.205
 S           0.24231002910542    0.81950641057569   -0.66636142009514
O          -0.01155575863392    0.62432493659941   -2.09330745712783
O          -0.76107503136196   -0.19062462715553    0.03948198167561
O           1.58043825331175    0.37717180358331   -0.28657272972863
O          -0.07117327155978    2.14420982161887   -0.20373999860606
O          -0.32908775437429    1.98721484140879    3.61978207444228
H          -0.96136553187239    1.66238760424045    4.26291084997381
O           2.51397142586568   -1.88778530393835   -1.12760105693432
H           3.42116172859247   -1.71838615231097   -1.38595889792986
H           2.19032204884404   -1.04035542814447   -0.72024940620083
O          -1.75681296993148   -2.46113081358675   -1.05964365024263
H          -2.67464191533043   -2.29110017140847   -1.27874077772257
H          -1.46168130339346   -1.69997221620937   -0.52196610499716
O          -1.73736331119715    3.03178898696598    1.60912643537073
H          -0.85940839175327    2.42477947247715    2.91229192846484
H          -1.66379199202708    3.98327562255255    1.51455307132848
H          -1.17705608044054    2.65960462465039    0.88964731922558
O           0.57215424191871   -0.07132732263861    2.18043553163361
H          -0.36772609995731   -0.21675146043967    0.97085717680199
H           1.30342787192967    0.21049456307621    1.61239764321454
H           0.32724748700538    0.70060276422796    2.74604941332322
N           0.33788328813379   -1.83887866005259   -2.63191287781631
H           0.37827759926372   -2.08681184318065   -3.61398422203970
H           0.18553510550902   -0.76530027095538   -2.48891580340684
H          -0.45817022393180   -2.30334791641600   -2.14577781419664
H           1.23818054628710   -2.05358926554733   -2.13280119840660
