    26
        -50.45891855  Gyration_radius:  2.68215964229 Dipole_moment: 5.207
 S           0.36521709072405   -1.01606990891770   -0.08002986703131
O           0.06927959805132   -1.71515629964889   -1.30102015246153
O          -0.66269032797238   -1.18086691809390    0.94305514079251
O           1.70287071671725   -1.29361517153774    0.44186906220144
O           0.40054367658571    0.53849419316402   -0.40787141043915
O          -2.95005718154520    0.01660399543080   -2.90920218306590
H          -3.11289322609255    0.83010720503517   -3.38943829848519
O          -0.33553441254201   -0.19865236649030    3.31730107631323
H          -0.54911456512724   -0.54271855071286    2.40911963511843
H          -0.63476128970846   -0.87611972735127    3.92551775112189
O           2.01320113761774    2.36977891296265    0.77581033790152
H           2.69315352379092    2.60069562434400    0.14042679714105
H           1.35344874419647    1.84080736077952    0.28545988249408
O          -2.12286434962506    0.62095744560996   -0.44499112233728
H          -2.50594279456760    0.35864051922745   -1.31689800763016
H          -2.07467485464107   -0.17831438741494    0.09875625157232
H          -0.58865298487137    0.72718247914681   -0.50085833118460
O          -0.56776655392662   -0.88660872324892   -3.70077159693976
H          -0.59097779537357   -1.70177778824597   -4.20542457619158
H          -2.09703189384823   -0.33854338108799   -3.25482332156206
H          -0.25762561562770   -1.15029736854769   -2.80389270886899
N           2.11588914178444    0.24580383628961    2.42659054550820
H           1.21647976897460    0.16559604708009    2.96550739369279
H           2.92435906621028    0.03740424227878    3.00149208156100
H           2.01206963668246   -0.46092677394688    1.59834959222721
H           2.18407575418623    1.18759550393780    1.98596604855028
