    26
        -50.45891845  Gyration_radius:  2.68179435182 Dipole_moment: 5.204
 S           0.38925225837133    0.81332126143244   -0.60220599681698
O           0.24210836709443    0.70655543417735   -2.05329938475900
O          -0.77796768658511   -0.10307818202385   -0.03371220252518
O           1.63153052573425    0.20560347780119   -0.13538636459571
O           0.18463522802458    2.14534416493768   -0.10123481346419
O          -0.42394821175980    1.86186431389870    3.67563577819062
H          -1.14239526848826    1.58571681595493    4.24702255681914
O           2.37850541913642   -2.11566436435931   -1.00859916429055
H           3.31818392802823   -2.04142746946556   -1.18167647144859
H           2.11626914838851   -1.25377377753707   -0.58760819238437
O          -1.91855044055491   -2.19791769119074   -1.32422366095241
H          -1.58942093140295   -1.49803373853941   -0.72639075695325
H          -2.78907973754641   -1.91509605216363   -1.60973542451489
O          -1.52572505162666    3.14236894639810    1.61081180236600
H          -0.94905841393302    2.73837421411909    0.92207479064422
H          -0.83827175154288    2.38591082401406    2.94971475197736
H          -1.33950197726703    4.08226838859866    1.57096189855950
O           0.36676211325340   -0.22581604580545    2.21348528412467
H           0.16003876710569    0.54522190268028    2.79532131138624
H          -0.47326808869736   -0.21252057785672    0.92445677737226
H           1.17183823230721   -0.00659246310342    1.72292189234299
N           0.36246490291604   -1.75658344677501   -2.68410598122508
H           0.46155127796980   -1.96751725161649   -3.67064375315831
H           0.31802199307949   -0.67929495383430   -2.50049203222035
H          -0.51987039303567   -2.14602398533642   -2.28968152805904
H           1.18589578102384   -2.09320972440498   -2.12341111641708
