    26
        -50.45365730  Gyration_radius:  2.50950340819 Dipole_moment: 4.129
 S           0.17662468047509   -0.22291296270064   -1.15348277080526
O           0.56095614369558   -1.33556650563738   -0.26478082932198
O           1.34187478081928    0.55647849903215   -1.54347251851329
O          -0.42184390229888   -0.89692786550569   -2.41466961535201
O          -0.83459867789095    0.60779808911952   -0.52605217601777
O          -0.27642123985862    0.39991547163293    3.07006633973608
H          -0.29166762333553    1.35321562320123    2.95912894421956
O           2.58517376406629    1.46834772334775    0.51452228632151
H           3.51536635670346    1.46692816675185    0.27849789877662
H           2.09383876022210    1.21309716130744   -0.31846773048383
O          -1.43151464616313   -2.84725643627399    0.71334422382616
H          -1.00965376419515   -3.57210556183849    1.17742277793038
H          -0.72442704379268   -2.38373450231013    0.22516678872729
O          -2.17375428872635   -0.36454090487323    1.54865348050961
H          -1.81487100538441    0.05159874676874    0.73649530805245
H          -2.12547563046282   -1.32207443835107    1.37345123495039
H          -1.08571009186690    0.05317153780818    2.55263399775157
O           1.67373044758136   -0.50985276439715    1.81349199514887
H           0.85886450149267   -0.14649975285266    2.41230309588170
H           1.23194364793070   -0.95250092446727    0.98272001691262
H           2.13282832424047    0.31646385019606    1.40989084400473
N          -0.85063865614384    1.53755858819876   -3.21728336786182
H          -1.39227970585568    2.11332490364059   -3.84991803614092
H          -0.68727744758354   -0.10828092435813   -2.95902907613921
H           0.11842469847425    1.82973434095727   -3.25475468556662
H          -1.16949237212701    1.69462085162037   -2.26587841653720
