    26
        -50.45365666  Gyration_radius:  2.50864500444 Dipole_moment: 4.120
 S           0.18271018706390   -0.58352766819035   -1.01712954421289
O          -0.51429329267236   -1.34517043756109   -2.17354248301759
O           1.58023991249767   -0.37536646118218   -1.36469306980919
O          -0.50282450121860    0.67512270182968   -0.78786882501584
O           0.05832003986576   -1.46525627069877    0.15864884130611
O          -0.37175263792917    1.31818764641417    2.78597751433787
H          -0.02923386733489    2.14892940020542    2.44852960757468
O           2.89134251596267    0.61423859553101    0.61396034589814
H           3.77263127268699    0.23884249917322    0.55613580319998
H           2.41347364439373    0.31216914161331   -0.21114968641253
O          -2.42450643240124   -1.89947287135127    1.08465042782932
H          -2.33815705061000   -2.56289748804319    1.77105675369980
H          -1.55755863379037   -1.85040332952181    0.63824476158048
O          -2.28312087865049    0.81769133333501    1.17493968840664
H          -1.20597016499389    1.12304405350717    2.23042583331468
H          -1.72801703989811    0.84757522381032    0.36718575992075
H          -2.57069254643345   -0.11135476153545    1.23870170436393
O           1.21110581267816   -0.49917395032859    2.15304568871894
H           0.71171626925312   -0.98779017514829    1.38298493459731
H           1.97365412416166   -0.02044289232412    1.65734696037181
H           0.53688775510819    0.26622758781603    2.49191314077254
N           0.04274371258055    0.76745148463443   -3.58115002930325
H          -0.27249178890472    1.28002908811861   -2.76307192083635
H          -0.42736984917757   -0.69797894953386   -2.92347654823633
H          -0.20012211839205    1.28784987759965   -4.41493790003782
H           1.05128557615436    0.70147663185312   -3.51672775901582
