    26
        -50.45365684  Gyration_radius:  2.50874668758 Dipole_moment: 4.121
 S          -0.78119402522714   -0.65567184333674    0.60710064556793
O          -2.02288456889709   -1.57464440255961    0.47695871400980
O          -0.55626464305636   -0.36380449076824    2.01474929430598
O           0.33829336669304   -1.43462826848582    0.04547553047752
O          -0.99721590865845    0.55686622779592   -0.16083146140291
O           2.22583716471854    1.52671462734576   -1.53679861151105
H           1.96370613523832    2.35090130820954   -1.12039896847445
O           0.22448339422376   -1.98930269479703   -2.57932056857175
H           0.16449736135293   -1.90851804630790   -1.60819571954959
H           0.95930886102515   -2.57848309394748   -2.75706871473452
O           1.65243149470399    0.90846622415782    2.35660318418563
H           1.99988738756724    0.60538711822243    3.19823053674076
H           0.74630918330187    0.49361346156264    2.27232550819399
O           0.04807374506907    0.72738389531994   -2.59395552884485
H          -0.46378750275705    0.73052848862240   -1.75754263877257
H           1.40626530119763    1.21398867219505   -2.05956551767556
H           0.09724352140740   -0.21281705708160   -2.84585796761366
O           2.50092857055789   -0.19954802181819    0.23898137978191
H           2.44748363696434    0.53334041668800   -0.54535147105159
H           2.30293300346423    0.29536185991015    1.11772809837970
H           1.65759385223639   -0.79584787906052    0.11941969576556
N          -3.32110554820740    0.44074653419716    1.48125315085849
H          -4.23609079985417    0.86186496286435    1.58341680783485
H          -2.76644309772443    0.99730263574259    0.83787842494348
H          -2.84651778428165    0.46426601303982    2.37558685334174
H          -2.74377211106039   -0.99346663769064    0.83917934382667
