    26
        -50.45558066  Gyration_radius:  2.44452813063 Dipole_moment: 2.114
 S          -1.28599597609072    0.23569803635823   -0.51885452530478
O          -0.15736800404482   -0.69279409183478   -0.33004215768015
O          -0.84174521193487    1.61067338669294   -0.55640723622609
O          -1.93489505609926   -0.12876311692797   -1.87471643405130
O          -2.28716472714722   -0.01644255475516    0.51865805895524
O           0.81419651949656    0.50360369488970    2.89191421587884
H           0.69809846638701    1.22560881155383    3.51250726088729
O           2.23756774715115   -0.12749599683826   -1.24653467365960
H           2.82105670243711   -0.84093518799013   -0.98296995472788
H           1.33983101355026   -0.38231474956708   -0.93404285117595
O          -0.50941131277500   -2.82441566634797    1.10644652582465
H          -1.24646433596151   -3.30336772838619    0.72238004748769
H          -0.28748397427481   -2.09854102417388    0.46800086899852
O           1.46860717485748    1.72499963614277    0.70989560428613
H           1.99816013574714    1.20691882601921    0.08248872762020
H           0.59763574967400    1.82076589008287    0.26861195577209
H           1.11224781657797    0.93133282809161    2.03035279852424
O          -1.26366773108708   -0.89633068574898    2.58723923931347
H          -0.93912068045354   -1.77874852489047    2.18461950660066
H          -0.40592147865894   -0.32082653937884    2.73949251030508
H          -1.77339127239482   -0.46086007248862    1.75940129852476
N           0.05973810972004    0.93514068913674   -3.13111645421316
H          -0.02121835815979    1.71120981194326   -2.48070309884565
H          -1.23214620928053    0.19889185819433   -2.52628055017415
H           0.10195853087349    1.29864023925915   -4.07467512726383
H           0.93689636188312    0.46835223099615   -2.92566553568169
