    26
        -50.45558054  Gyration_radius:  2.44445403063 Dipole_moment: 2.116
 S          -0.37301124119554    1.19175268671223   -0.64733257734771
O          -0.52260045324015    2.64213297317966   -0.13116444124101
O          -0.47790718426928    0.31358163616998    0.53148103994503
O          -1.50713089243889    0.93203673449039   -1.53529272085656
O           0.90665931802754    1.04814570631831   -1.30417161207552
O          -0.21358237621366   -2.77514526304432   -1.23966019581829
H           0.02618691215649   -3.15836409728093   -2.08553876410409
O           1.63944537902040   -0.32832512835550    1.94608732438236
H           0.82531403722513   -0.06540808520037    1.45972814407298
H           1.35274901965282   -0.93022734672020    2.63487670540974
O          -2.76837273398690   -0.76656765450574    1.09555884140859
H          -3.40225125444978   -0.05160268380676    1.18082419332207
H          -1.87562784569467   -0.33909450244783    1.03164260074760
O          -2.32192331852475   -1.39079102974364   -1.33140997411033
H          -2.63808430867568   -1.31402612290251   -0.36173914481557
H          -1.99222881948789   -0.39681331421781   -1.52600288679700
H          -1.46331101029447   -1.98412432216391   -1.30430216960414
O           1.85040049562199   -1.32977564299177   -0.66320992064633
H           0.58378591632540   -2.23125188696927   -0.95249925208915
H           1.58340167672719   -0.45375715337284   -1.01499459389505
H           2.00064635400971   -1.17132352302878    0.28267297536098
N           1.85613040395387    2.54205979182450    0.87871399975688
H           2.48858874587528    3.29975134510136    1.10255098365928
H           1.94122387036616    1.82845470220078    1.59499650841108
H           0.35616142447461    2.77162583224027    0.35562617413124
H           2.14533787499697    2.11705632841514    0.00255876275860
