    26
        -50.45558042  Gyration_radius:  2.44441241789 Dipole_moment: 2.120
 S           0.77807425890496    0.99046253057746   -0.62751464240053
O           0.26552895100546   -0.39114407465053   -0.62016849890006
O           0.92857738517317    1.39683948011964   -2.11236333912902
O          -0.13619407064909    1.89951032344186    0.02608179770091
O           2.11872010061740    1.00267963493162   -0.04037355657813
O           0.26679807545379   -0.80769796149036    2.92553722087724
H           0.33191801879260   -0.33326066407925    3.75650209008160
O           1.94310294317628   -2.35364998407373   -0.36316093622471
H           2.59000256097044   -2.26402423215125   -1.06576555314188
H           1.22771587866772   -1.69527063411626   -0.55947305576028
O          -2.31230202176800   -0.89070538544552   -0.66258251493847
H          -1.34190425438391   -0.72993182718879   -0.69273274668433
H          -2.42073711739136   -1.84184971777296   -0.61254934000716
O          -1.60658342797179    0.46878229131916    1.68384091845306
H          -2.09847666482722   -0.04756161651023    1.02511934106728
H          -0.48500556440106   -0.36784144723774    2.42004034416842
H          -1.09109384833857    1.11101210448267    1.15079913096469
O           2.41873380882351   -0.81334825477628    1.60676210983085
H           1.54198853311911   -0.82091181485137    2.17355358360837
H           2.32699898673036   -1.58466816676654    0.94138681046893
H           2.35048352499394    0.03175157968663    0.96202238584250
N          -1.64072831876743    1.60091746308704   -2.32884575373686
H          -1.61463511627757    2.09467257076816   -1.44144077642830
H          -2.11410523488661    0.71916172937793   -2.16189636658961
H          -2.18663213368079    2.13896228153140   -2.98970813652869
H          -0.04024524308891    1.48711379177238   -2.39307053602866
