    26
        -50.45725997  Gyration_radius:  2.58676623515 Dipole_moment: 6.904
 S          -0.64676074779081   -0.56211455336794   -0.56769522386348
O          -1.53846855962605   -1.66397738599392   -0.83972589857689
O           0.72063506284592   -1.20967072485059   -0.17239892347358
O          -0.44307060858777    0.34817516368811   -1.66900766863094
O          -1.07635721001079    0.15639646324659    0.66629008621281
O           1.44057300019343    2.94328964241754    0.37791327500534
H           1.43112217713972    3.34396383408999    1.24747478874475
O           1.88643086275041    0.94048707194797   -2.84819251139759
H           1.80114797232201    1.86894540841634   -3.07399059017748
H           0.99832043725930    0.65015349300856   -2.55876075747257
O          -2.30798970931968   -3.37341825671163    0.94008403824165
H          -2.03852450967991   -2.84283202160414    0.14323816535852
H          -3.26133265765369   -3.28595062052287    0.99532173034529
O          -1.09826136288065    2.61993060369537   -0.35109480212617
H           0.49997692324618    2.91585735910906    0.07643442954022
H          -1.00749286284385    2.22033361471930   -1.22569068439623
H          -1.24449829022045    1.84170056534587    0.21587119996310
O           2.50037829345601    0.56190972088895   -0.27145144770675
H           1.46440061915108   -0.49010060812646   -0.20519212029277
H           2.54650094006348    0.66371788725692   -1.24701378429553
H           2.15827321759919    1.42637450944359    0.04720854388022
N          -0.54926334205380   -1.82970401095142    2.11602786770768
H          -0.85477630376452   -0.88535127856146    1.62371292109942
H           0.31064550454867   -2.06520421289221    1.61059629640692
H          -0.40096455446985   -1.75026065067099    3.11662671507101
H          -1.29064428168553   -2.54265101301584    1.85341436481975
