    26
        -50.45677611  Gyration_radius:  2.55940345994 Dipole_moment: 7.411
 S           0.46267108590751    0.64737332468149   -0.77786815925321
O           0.36061023261854    1.45359389644009    0.45814652824224
O           0.33863854445253    1.48581920264886   -1.94895338752718
O           1.60533358095808   -0.23103548044164   -0.78260815277995
O          -0.84444590893165   -0.23837613105552   -0.71173487620082
O           0.29369424372549   -3.03168928679211    1.21052184951274
H          -0.41876672888123   -3.47678672070484    1.66991785035016
O          -1.73000605724211    3.00830637960170   -2.11631356172216
H          -1.38272575843448    3.88664756835196   -2.28322728338756
H          -0.94421866025202    2.39631694897122   -2.18859005586408
O           3.05301248456454   -1.20216672936762    1.31492573129038
H           2.93688344917890   -2.14557460944109    1.17720436120501
H           2.69463862500066   -0.77299257772597    0.51741201969434
O           0.21664124578518   -2.44257935062635   -1.39455984626767
H          -0.56808228469265   -1.15013464112552   -1.04956319662167
H           1.03503363465494   -1.92802159076695   -1.46273754760230
H           0.24413618914388   -2.84171283308630   -0.49592309756741
O           0.58422545175849   -0.58131716223048    2.23398067459263
H           1.55228092760630   -0.71229372118189    2.24764121160636
H           0.46423971826942    0.17843482876950    1.64042273778254
H           0.34720590026679   -2.12372135278290    1.59837445416745
N          -2.10124564031030    1.98034786747377    0.25409213756968
H          -1.02700517073734    1.83119908616982    0.46110702932678
H          -2.46341242988843    1.04149356311264    0.08849998957347
H          -2.59254092576574    2.45081026063187    1.00730523364613
H          -2.11679575877025    2.51805925047186   -0.66747264380595
