    26
        -50.46336472  Gyration_radius:  2.46273795228 Dipole_moment: 4.768
 S           0.71417269716876    0.12347433823468   -1.24656164895223
O           0.43008032874165   -0.51306618538108   -2.50330031475545
O           2.21542948584854    0.56199557130086   -1.24177379936354
O          -0.08543068271575    1.33800780709497   -1.03291090650768
O           0.52952099234235   -0.79036991106081   -0.11453484811264
O          -2.29244273799599    0.66901174146188    2.04519234824320
H          -2.85368689652029    1.25206362161766    2.55879424230583
O           2.95778798386388   -2.04584145892581    0.00378870165866
H           2.02557776245319   -1.78741479528810   -0.07506638521251
H           3.32924026151237   -1.96649815088978   -0.87632033475214
O          -1.53732667548602   -1.99309018039228   -1.52063258409977
H          -1.03785828796175   -2.34216891730257   -0.77482545923108
H          -0.85553406309152   -1.56521059779783   -2.08382065675025
O          -0.07122689134876    2.01794101860923    1.56068153284267
H           0.78236885140502    1.70676142028959    1.88117259944930
H          -0.04168480760044    1.90352328774962    0.58946010449196
H          -1.41665780805167    1.12850345045136    1.97394863298526
O           2.28356795652752    0.40924607318425    1.41581985941569
H           2.44315660193547    0.70492605400979   -0.29659855304396
H           1.52076988429055   -0.12838977612605    1.11471102388378
H           2.98606633427709   -0.23211199052401    1.56952294549516
N          -2.44037375617292    0.31320944067269   -0.59153482625268
H          -1.55571481119614    0.84739667755233   -0.83988956341120
H          -3.25278449346135    0.70860618447385   -1.05294458159835
H          -2.25166832025078   -0.67838627366477   -0.92082554067646
H          -2.52534890849806    0.35788156065137    0.45844801194085
