    26
        -50.45677613  Gyration_radius:  2.55945982058 Dipole_moment: 7.409
 S           0.31046040194246   -0.23925741609853   -1.04127392298942
O          -0.62483753675219   -1.33584650584334   -1.03333485391000
O           0.72766967018626    0.19118659354172   -2.35676282293349
O          -0.37763672819139    1.00533965812870   -0.35209770967765
O           1.48237454249397   -0.47482909578854   -0.16992388512822
O          -2.48247561130302   -0.59721032863167    2.05541122496143
H          -2.68345543732711   -0.03239256134348    2.80195012754413
O           2.30088923360685    2.22279673733095   -2.50799091795095
H           1.62727915587058    1.48757076237591   -2.56225316244533
H           3.03959282679409    1.92911875738211   -3.04469249828378
O          -0.98788180163462   -3.28949745555010    0.83463727467399
H          -1.90909828976357   -3.13813393253208    1.05993877108235
H          -0.81160986392071   -2.73172154041486    0.05587949312125
O          -2.77359720874306    0.17345004349350   -0.48628995066185
H          -1.37151404342685    0.83248343362804   -0.41701266715105
H          -2.38960164575596   -0.59846747230960   -0.92884323489971
H          -2.85727340248124   -0.09274595358338    0.45700864820127
O           0.12897287055252   -1.15956207670884    2.07581923191930
H          -1.50693509755604   -0.75572063839441    2.08440560319082
H          -0.08085353299843   -2.09542352911020    1.88972905823127
H           0.66053804411786   -0.88731249037842    1.30947712549574
N           2.14294201807028    1.94994243499682    0.08312265758590
H           2.87755172177238    2.22021358321972    0.72915509227892
H           1.23988083116659    2.34636469619515    0.34270079902957
H           2.34932347012938    2.20960894508833   -0.93110952769841
H           1.96929539339502    0.86004536125984    0.05235005637814
