    26
        -50.46042122  Gyration_radius:  2.39373893583 Dipole_moment: 5.476
 S           0.79138221492283   -1.25045801681997   -0.39986121653757
O          -0.57183793911982   -1.21503093008997    0.16133299502419
O           0.96818477319255   -2.32908211074231   -1.33444079677692
O           0.92011215309865    0.05435764818213   -1.27647390083377
O           1.77569374648331   -1.15789010267044    0.66291080094381
O          -1.26225779177349    1.05505403864692    2.20293619003784
H          -1.07643679730700    1.61909526141714    2.95609820276702
O           2.28315541201464    1.43306670674113    1.15639478233256
H           3.23246899466661    1.55226757455677    1.19607718048223
H           2.14209909428429    0.47330263258764    1.02151365017515
O          -0.55514232635680   -1.29474461530748   -3.20663942213921
H           0.10821470791399   -0.86322279955136   -3.75012720358539
H          -0.03014427076741   -1.80335270633881   -2.53775418032203
O          -0.10446909855804    2.02949091045574    0.04248925609917
H           0.75927249659799    2.24851499446268    0.42763245075638
H           0.59291081313124    0.83681601092782   -0.74935173791702
H          -0.61269055346686    1.66631968794134    0.81413727779353
O           0.14072641586705   -1.14406886877472    2.80049105348012
H          -0.77538191423388    0.21317013948653    2.38300694575816
H          -0.47009909509431   -1.83616438416117    2.53652624420203
H           0.83621849115347   -1.15601076896261    2.11403789949259
N          -1.85733491339678    0.20679662470038   -1.46160396020167
H          -1.50103034920024    1.15435490904305   -1.32938047757870
H          -1.43305076753404   -0.26443136183322   -2.31245014604149
H          -1.42927278064341   -0.41232903007906   -0.65157403478948
H          -2.87129068589817    0.18417854619255   -1.46592789262443
