    26
        -50.46336476  Gyration_radius:  2.46275102553 Dipole_moment: 4.769
 S          -0.29216157589934    1.19902366385590    0.74578916043724
O          -0.78776436739725    1.09185435997025    2.22534986976088
O           0.75100153742327    0.18385067732012    0.56719418011004
O          -1.44122242542034    0.87898183674925   -0.11288110507646
O           0.20854689518156    2.52841341579210    0.52888286610547
O          -0.34070255840867   -2.02452608629055   -2.38100959387291
H          -0.83881871384568   -2.57944528609610   -2.98317763085232
O           1.91149266583508    0.11954138978573    3.04421892972599
H           1.71677239973910    0.97099574874289    3.43919917365405
H           1.68437391968736    0.20254777229000    2.10421775398132
O           1.86892402630474    1.78759294542117   -1.40040520576863
H           1.35275111289592    2.27506379439229   -0.72150169755211
H           2.27942635137998    1.06825901787023   -0.90882122809169
O          -0.33799287894621   -1.53278294652390    2.21821015187574
H          -0.83204153307169    0.12912380351549    2.41708406689706
H           0.19254461547411   -1.14654510005423    1.48959318588743
H           0.28758736871450   -1.63845304673287    2.94345954278329
O          -1.82442562295758   -1.77299424519056   -0.20794276618099
H          -0.84055203273133   -2.03601169719033   -1.52466110251119
H          -1.51311830623129   -2.08665452545395    0.64814960789797
H          -1.82180010379627   -0.79672961160124   -0.14369647050577
N          -0.27880491211183    0.63880840243813   -2.43271818411945
H           0.66070782380183    1.06994952399908   -2.19037147889501
H          -0.20114494089749   -0.40601609775255   -2.55148335635544
H          -0.87303106682482    0.79450727627875   -1.56533346059515
H          -0.69054766792792    1.08164500446599   -3.24734520873679
