    26
        -50.46742651  Gyration_radius:  2.40215759857 Dipole_moment: 4.777
 S           0.77228325557101    0.06847801168754   -1.53637497293187
O           0.80642586982028   -1.09007918007328   -0.64401189900526
O           0.38090664998296   -0.31955174501711   -2.88935611793897
O          -0.45019135105825    0.95137302523087   -1.07754995649309
O           1.97326989795671    0.86225489469965   -1.44376042398741
O          -1.01527336911956   -0.29337934419724    2.34787248794073
H          -1.29977532498208   -0.53250825056922    3.23050481393338
O           2.56152310645805    1.39827871614072    1.03020292650229
H           2.40325958301146    1.16421517846670    0.07773063871093
H           3.29992465040844    2.00923681007673    1.02790547677674
O          -1.64214517748259   -1.65343317783802   -0.00732241692016
H          -0.67612867898152   -1.62278755659535   -0.21371793859403
H          -1.71388606506435   -1.12004992047811    0.80241381560429
O          -0.07358977043490    2.01772828462648    1.22086840546296
H           0.89115157583685    1.90510765135554    1.32284380512383
H          -0.28096578785067    1.43010807109509   -0.20495768548987
H          -0.49607797727229    1.31459039455879    1.74706866112051
O           1.47317695946707   -0.99336646705439    1.92480459599125
H          -0.07925152299454   -0.63090317591781    2.25560403666231
H           1.34047650574384   -1.20792645201625    0.97916388778233
H           2.03319286590743   -0.20422618310155    1.90480423416874
N          -2.07827474908530   -0.69810687539497   -2.38985921384556
H          -1.02078648688816   -0.57217408412605   -2.69131457734444
H          -2.57532305919196   -1.32596155158855   -3.01390393626994
H          -2.03512152275064   -1.08372584174523   -1.38191368799495
H          -2.49880007701148    0.22680877777229   -2.37774495896636
