    26
        -50.45567463  Gyration_radius:  2.46081458003 Dipole_moment: 5.087
 S           1.68686490405317    0.93315727951552   -0.26930960325257
O           2.62265854301389    0.35733972043210   -1.33592259023913
O           0.32059338828773    0.79516115606391   -0.71031369520765
O           1.90810368676402    0.00944563751041    0.94505226691588
O           2.07661821669664    2.27126211017943    0.05508783032213
O          -1.80748202381817    1.08671746411285    1.75589718443863
H          -2.08307261730825    1.33658888956559    2.63945156730377
O          -1.22121792620741   -2.16585448224833   -0.74175775390802
H          -1.67863350628064   -1.29604187434457   -0.90151043797140
H          -1.90686656600729   -2.83537543764924   -0.74161164466690
O          -2.27634861846057    0.23845701555118   -0.88909466026396
H          -2.47572130302238    0.49663708103158    0.02139051360579
H          -1.38170207546463    0.59094724867386   -1.03612247681885
O          -0.30469088373268    3.12365459394008    0.93556799170924
H           0.61838273759781    2.88629073376440    0.71848086843757
H          -0.67618564667240    3.45894277566828    0.11651982834544
H          -1.22469498753243    1.82020777690986    1.43712824839391
O          -0.25128867693522   -1.11888356272824    1.58080496372960
H          -0.55732495109852   -1.57597688456752    0.77169395824604
H           1.03936350086746   -0.47173516395885    1.23204865076864
H          -0.84575565585017   -0.34527125516683    1.68755556144127
N           1.64688193532347   -2.00369874476905   -1.46704530049425
H           1.84311664886159   -2.53606908343104   -2.30472784154639
H           2.02388329468464   -2.50021535723820   -0.66958029048567
H           2.26726011173853   -0.61543531229583   -1.47850664691319
H           0.63725845054859   -1.94025232449926   -1.35117649188494
