    26
        -50.45567465  Gyration_radius:  2.46074077439 Dipole_moment: 5.086
 S          -0.88009466758215   -0.52191230134350    1.65613477658721
O           0.30764543876917   -0.65182189750596    0.84827586159001
O          -1.65569485146215   -1.84202317050900    1.62973150350154
O          -0.64081008070806   -0.11987330536825    3.00844451071764
O          -1.83569976422408    0.47469414726085    0.97018777979130
O           1.56556357764932    2.25320575592911    0.02734465545850
H           1.68219433928113    3.20164411195292    0.10413326116393
O           0.16305483140333   -0.72480508568631   -2.48569026947692
H           1.00871693903628   -0.65724916951437   -1.96451803651627
H           0.40893713824208   -0.65558573026687   -3.40933973010370
O           2.24829401927603   -0.30262681116116   -0.93999735269006
H           1.71347020759628   -0.60272283148679   -0.18492458549738
H           2.29700346258163    0.65556651537997   -0.81764405976021
O          -0.75513887532747    1.43121238360014   -1.09332844135426
H           0.08712475726122    1.77470892011548   -0.72472404930859
H          -0.50680188895723    0.66005571014556   -1.64192059187022
H          -1.42265977157924    0.88579866927161    0.11644636009299
O           1.52136151812247    1.39081805516283    2.54421004535396
H           0.69539328846400    0.93734593836627    2.80431575035319
H           2.21182752928767    0.73212122838196    2.64720558546706
H           1.52108516075332    1.91053498195860    0.95464351777446
N          -1.95398326697761   -2.06105888368892   -0.90140668697598
H          -1.79379631116255   -2.02816474481211    0.61022890343342
H          -2.72091413389503   -1.44544323469136   -1.14086483173076
H          -1.11299658438423   -1.70927667993239   -1.35494270817888
H          -2.15308200146971   -2.98514258155949   -1.26200117781832
