    26
        -50.45567465  Gyration_radius:  2.4608078568 Dipole_moment: 5.086
 S           1.40842754428644   -0.65950452039589   -1.17049464252446
O           1.04119514633980   -1.82924170874520   -2.08807496810946
O           0.80800509961858    0.56657959431374   -1.88691757341792
O           0.74298103758275   -0.82308180075880    0.09860251283976
O           2.83094116014195   -0.52986974889711   -1.08573662391243
O           0.64085008480043    1.96305960419683    1.80758630261329
H           0.90737403197101    2.85787744956524    2.02508529576038
O          -2.53858716245815   -0.31056882985986    0.43606842709519
H          -3.39600345159688   -0.12372264347796    0.82118960319136
H          -1.91457668286617   -0.45628755307082    1.19810915620369
O          -0.69794795003390   -0.46454504033311    2.30796197986005
H          -0.39330104654756    0.44153983947418    2.45505287584418
H          -0.08345035403588   -0.80618497014832    1.63571971538111
O          -0.88997054261001    1.69048687453504   -0.40570372605015
H          -0.36299692018371    1.83943206022521    0.40881101213534
H           0.10427730770364    1.05168254699059   -1.30546792096598
H          -1.53885130566213    0.99530192502443   -0.17560553992029
O           2.92684964074720    0.70351595977796    1.28973334352419
H           1.47503392906615    1.47884106273979    1.58627787741365
H           2.98755753637708   -0.05751864623867    1.87148111758043
H           2.99430761119860    0.33911474993461    0.38516906022470
N          -1.50346372340209   -1.57179980428999   -2.03702873473269
H          -0.00414514807010   -1.81852718766869   -2.09705487399909
H          -2.05247145474018   -2.38248344587593   -2.29200521320228
H          -1.77712428209013   -1.27461683913742   -1.10239384288215
H          -1.71491014555150   -0.81947892786409   -2.68036462994727
