    26
        -50.45589995  Gyration_radius:  2.51648689019 Dipole_moment: 0.999
 S          -0.11938403903751   -0.40776240933710    0.83934065653018
O          -0.44221117435307   -0.85057397304802   -0.54290889945007
O           1.32039643176792   -0.39786754163884    1.03760576486100
O          -0.72182391844960    0.89415851421987    1.09379386146676
O          -0.71610005962160   -1.44024325856661    1.79498389555001
O           1.73033527887285    1.94619752982418   -1.84539244332780
H           1.06445146104852    2.49709489284519   -2.26065987722550
O          -2.79100433563264    0.57638768836693   -0.55914937128173
H          -2.14865176163727    0.95741209935849    0.06730890650501
H          -2.25349010450328   -0.03138045698311   -1.08042315458784
O           3.09712760203563   -1.50002553096010   -0.49292605166735
H           2.46359328544907   -1.21322624277764    0.21320507899612
H           3.91134128817991   -1.01625066884895   -0.34008276307977
O           1.45334819755674    2.31572488966547    0.72072460288340
H           0.55063478077571    1.97217025214750    0.89637254608594
H           2.01796988943516    1.66418544439037    1.14935637031910
H           1.67710632913982    2.13987540034423   -0.86492667060839
O           1.39126817174641   -0.55969053490005   -2.13708057712632
H           1.55429958671736    0.45452830527240   -2.09220783354754
H           2.16063307567063   -1.00089694225735   -1.63163225162627
H           0.53842562836403   -0.73036071476969   -1.46899745776582
N          -3.24465626719112   -1.26538777895387    1.50333877989543
H          -3.70176740243265   -2.13038910418820    1.24840905734935
H          -3.33317520716895   -0.59528174193045    0.73051985130210
H          -3.69982411730323   -0.88222642557719    2.32074283944973
H          -1.75884261943128   -1.39617167171856    1.70068514009677
