    26
        -50.45567459  Gyration_radius:  2.46095881328 Dipole_moment: 5.086
 S           1.42593553958402   -1.30773503573646    0.21294374697747
O           0.23924521134746   -2.07782152320840   -0.39988982836505
O           1.02140545175525    0.05811124143071    0.43878001600762
O           1.90329144932403   -1.98876990994377    1.37739176686422
O           2.48795868300322   -1.34459466459282   -0.88970029042985
O          -1.82724275946860    0.25658708831497    2.03164151801000
H          -2.54556570509031   -0.07947783966207    2.57026641545576
O          -0.90470218062559    1.69813137225316   -1.74071585914178
H          -1.51581988963696    2.33267230151335   -2.11790253046508
H          -0.66750444409580    2.04064640508901   -0.83642959913356
O          -0.36930726992159    2.30496620881572    0.76143810680496
H          -1.06624834148299    1.89154086037472    1.28948300933048
H           0.33377750612727    1.63295321413166    0.74437428254570
O          -1.78389916820564   -0.58515123166145   -0.53850775847205
H          -1.49835935046940    0.19704594822861   -1.05215624342772
H          -0.60946498906560   -1.49220452411966   -0.47262496894783
H          -1.85788607977748   -0.27797242765196    0.39076787031763
O           0.36533991738956   -0.72907546877848    3.17226116044414
H          -0.99862191016649   -0.11747050336732    2.42260637134096
H           0.90267560869017   -1.30325886470834    2.59164621901386
H           0.94031866974377    0.00497156066863    3.39996182445587
N           1.16271779909257   -0.17460138187847   -2.73870405864373
H           2.03302377350058   -0.84725943766364   -1.68892618011938
H           0.58894063957695    0.55062716348473   -2.31258091322151
H           1.69479161142326    0.23683850154122   -3.49451923355096
H           0.54520022745475   -0.87969906286841   -3.12090484365206
