    26
        -50.45971438  Gyration_radius:  2.42832604679 Dipole_moment: 6.566
 S          -0.05413381959014   -2.11786630576549    0.67409667939018
O           0.59756707523465   -1.79980648158657   -0.62779796733812
O           0.43002872601146   -1.14827959098643    1.67860832004015
O          -1.57299548778287   -1.83256516135869    0.44964498008698
O           0.09963833230801   -3.47614545983901    1.05813459829450
O          -0.74858433024575    1.49560681560875   -1.87911792510983
H          -1.01247559767374    2.03076812041709   -2.62834277826010
O           1.25428058640693    2.11439728155072   -0.10876317155436
H           0.59197180806704    1.97113033619400   -0.81042272872752
H           0.75784342917035    2.09308390547553    0.72692472966157
O          -0.13754294484192    1.32651628137726    2.14081978382048
H           0.06054980777498    0.35848836470239    2.01360786982118
H          -0.21771578036684    1.46079196889051    3.08557420901031
O          -1.14782247358961   -1.03427939982850   -2.40868413620968
H          -1.97893039917287   -1.34288512914888   -2.03829850644730
H          -0.84109198180948    0.54516248571342   -2.16650815713574
H          -0.45242341429547   -1.42389065729354   -1.82871120601865
O          -2.10793866226827    0.71949093186301    0.37832433652902
H          -1.74280825078154    1.09350717679557   -0.44247203497320
H          -1.76928367357361   -0.85443148381269    0.44610409675310
H          -1.57087789739674    1.09279518676933    1.09824921035251
N           2.37007525279700   -0.23790167236746    0.23173423528952
H           2.07080862466573    0.76530806382704    0.02739301105120
H           3.36558080647904   -0.39375417077542    0.12613243766639
H           2.00176469545828   -0.50187289993160    1.16486997953161
H           1.75451556897357   -0.90336851640751   -0.36109984554103
