    26
        -50.45916065  Gyration_radius:  2.55302337272 Dipole_moment: 4.814
 S           0.13444978951371   -0.31372034002956   -1.18162182710651
O          -0.42038749534639    0.97137586275115   -1.64664130730710
O           1.26415644614848   -0.71687475259427   -2.00585243704560
O           0.76518468958529   -0.00926627880338    0.22205148859942
O          -0.88385164411083   -1.32154082055874   -1.00651222920259
O          -1.38950006302377   -1.71203107771358    2.95271193893100
H          -0.74495973767524   -1.87107924167653    3.64398402789637
O           2.59122790048547    1.97304038292483    0.36168992966967
H           2.20947930570231    2.59948379400948    0.97986871512628
H           2.06468368869024    1.15321588277826    0.45303331062031
O          -2.71429651528093    0.64247335929788   -0.31110829938893
H          -2.74116925749540   -0.30669693399619   -0.47415316562518
H          -2.00420283629922    0.95461496585865   -0.90151747420799
O          -1.06905968051429    0.65659406053587    1.77727593812989
H           0.00679866928785    0.26777235004900    0.89786160471528
H          -1.81711124422057    0.75813173418504    1.14134336063659
H          -1.26324480204850   -0.16411075202047    2.29139851258288
O          -0.59580405105021   -3.16913572674536    0.85294594467955
H          -1.14999045950830   -3.88964772902841    0.54772751541344
H          -0.62163692061327   -2.49430315334905    0.13924629450778
H          -1.12619575856904   -2.29031249876820    2.20050224111158
N           1.94253694177316    1.70388162599941   -2.21559312613222
H           0.88896217571240    1.77269492091437   -2.10009465539048
H           1.97241345655307    0.62774869063549   -2.26122527383826
H           2.31201992669461    2.17123368156444   -3.03581402425020
H           2.38949746560185    2.00645800377133   -1.32150703312841
