    26
        -50.45916063  Gyration_radius:  2.55236580186 Dipole_moment: 4.824
 S          -0.16078916868151    0.64162605647863   -1.03733286521392
O           0.67402311063389    1.55026241954633   -1.80934522132542
O          -1.34188801167489    1.23900988548872   -0.46152073289215
O          -0.46612006691882   -0.57501034702832   -1.81299206644323
O           0.76461322268739    0.16393623490994    0.13591464620644
O          -1.20247233490903    0.39863414144950    3.45951557635280
H          -0.49929010722488    0.54017974580052    4.09510012115855
O           3.00841011273242   -1.18362578724387   -0.52065762530654
H           2.32488178594693   -0.60132239383652   -0.13144164083965
H           2.90643803810400   -2.03321672191565   -0.08697136453607
O          -2.49565573283882   -1.26972224771095   -0.21537224214236
H          -2.77362111760529   -0.35741010934354   -0.07843081767423
H          -1.84951470392563   -1.20353599699946   -0.94216242557110
O          -1.16623803025351    2.52476076847623    1.83446779814140
H          -1.91779347424683    3.12022435218072    1.82241337603950
H          -1.22361354796179    1.20635102708267    2.89679556082746
H          -1.16136449800193    2.08613522969370    0.95530882473885
O          -0.54749600013728   -1.38183535531467    1.59008968083352
H           0.22836865114188   -0.48612940503090    0.76752614616730
H          -0.83546110437715   -0.81703769835735    2.34757786146536
H          -1.35177105120206   -1.51440191544269    1.03336218927163
N           1.86304156434454   -0.43410188118987   -2.81427224399036
H           1.62401405222646    0.57840967859405   -2.53176386391706
H           2.52221073690473   -0.82485913285865   -2.10459749126900
H           0.89561120235065   -0.82606091869192   -2.62049345687938
H           2.18147649289779   -0.54125963874106   -3.77071771320086
