    26
        -50.46227326  Gyration_radius:  2.43445378987 Dipole_moment: 5.873
 S           1.23842334557376   -0.16934850298444    1.06670771538816
O           1.02040157838652    1.28881919660954    1.11072792128279
O          -0.13163777124312   -0.78589102076287    0.57308797387056
O           2.22996281669599   -0.50324704623239    0.06213321045934
O           1.43349831725772   -0.74026537956359    2.37124098755292
O          -1.16721615934518   -1.43234727763543   -2.64160437261990
H          -1.63944849122251   -2.18231664687836   -2.27763374366325
O           1.42852442641521    1.42532432633784   -1.60952275390329
H           1.82071617373662    0.71462315901291   -1.06114117525276
H           1.62339387228742    2.23124574170162   -1.12604584140615
O          -1.05311816228973   -0.52313565597202    3.18152209562307
H          -1.39603783764836   -1.38522983558388    2.93518136470870
H          -0.07952777904514   -0.58835617323919    3.00897709057180
O           1.41769513911615   -1.89656532255125   -2.07369519265365
H           1.70695240671606   -1.51647192340506   -1.21966860855580
H          -0.21327653998890   -1.62430158489839   -2.49083503770699
H           2.00145572426407   -1.51482794218849   -2.73284195473702
O          -1.13897165244852    0.78821922592003   -1.20493490093246
H          -0.27186161862797    1.16557642429980   -1.48205949166759
H          -1.32123659362099    0.08224682350772   -1.86721230161132
H          -0.50365125409193   -0.22819159911391   -0.16971372117913
N          -1.44980307110189    1.50281913231461    1.53233508429750
H          -0.35879079127125    1.56981817763087    1.38061000533827
H          -1.83835053693776    1.28949452513165    0.60855084714286
H          -1.51375006204615    0.68166064206121    2.20122750392622
H          -1.84434548951982    2.35064853648362    1.92460729573537
