    26
        -50.45301673  Gyration_radius:  2.45740081921 Dipole_moment: 2.642
 S          -1.18385946894201   -0.12639082246806   -0.88062520294193
O          -1.84252510350757   -0.71153100925069    0.28777634827765
O           0.26965501171382   -0.25814732733632   -0.75950270281038
O          -1.62292356233935   -0.98755128831830   -2.09801720510476
O          -1.56458302836687    1.25363743452813   -1.10783203585467
O           0.18516977927919    0.43994081687315    2.97555640704746
H          -0.29445645275824    0.68866676165449    3.76758001614283
O           2.32799546765655    0.24471099130201    1.01726115368078
H           1.88947022221506    0.44166470965635    1.85107579312551
H           1.64108397733049    0.28156347998035    0.33072135311142
O           1.49551398553872   -2.27488872304124    0.38262153334545
H           1.05632746331949   -1.71140314347850   -0.29435299168975
H           2.20712647497929   -1.69817385828465    0.71437752001658
O          -0.39671608652841    2.13367939629866    1.06483503790222
H           0.41076916865961    2.49668314564943    0.69255047488605
H          -0.94060831519311    1.84729682341837    0.29646703774808
H          -0.10466216265878    1.07499266587305    2.26569574215460
O          -0.42376544795446   -1.84632978582174    1.94503222675076
H          -1.10834453586543   -1.44249368843198    1.22406493839342
H           0.40405392348099   -2.14864212745881    1.36455445711021
H          -0.14208023771281   -1.01583715896355    2.45254977593676
N          -0.38413529694311    0.72330103742225   -3.63573726551173
H           0.61112671768359    0.62022161999777   -3.48587263982624
H          -1.21539118829539   -0.50848231568183   -2.86967533448658
H          -0.73958755763745    1.37530015938813   -2.94167819142361
H          -0.53465373716058    1.10821219648248   -4.55942625597932
