    26
        -50.46513934  Gyration_radius:  2.39159966511 Dipole_moment: 3.141
 S           0.47472338261372    0.10824860097331   -1.36758696491375
O           0.09851970789603   -0.14250093751336   -2.75002693503570
O           0.62694403424135   -1.14085615169220   -0.62633071280644
O           1.85272112296405    0.83067765267173   -1.33030619664249
O          -0.50744667429672    0.98838221636036   -0.72961546555589
O           1.13997564425330    0.51307519116381    2.64390739178224
H           1.50054320846243    0.53592568019148    3.53133526329538
O          -1.48919922215726    0.10433108925691    1.59017662966487
H          -0.71133610222144    0.11299893464725    2.16465209177785
H          -1.18163141736532    0.52582445122572    0.76386806835659
O          -1.79178671013497   -1.96751745663867   -0.03267688326779
H          -1.87679280100171   -1.34814038236428    0.73197192115685
H          -0.82865766517929   -1.93483452951527   -0.22336264323408
O           1.29662930512123    2.37980861350791    0.65426599455016
H           1.79295394506514    1.49587698216197   -0.58053724574343
H           0.40169657091463    2.29113885617095    0.29191954038477
H           1.29040608052557    1.83897837666771    1.46899484053267
O           2.65530397940764   -0.92810960519672    1.02408625465931
H           1.92646903043269   -1.15344110327660    0.40378652660045
H           3.28102529652081   -0.41902410231723    0.50362131680120
H           1.71606157675614   -0.09923327163084    2.12172854456870
N          -2.36944982068371   -0.51874572760808   -2.07560721463529
H          -2.23302567451259   -1.19929449526908   -1.20810949962320
H          -3.04197705131819   -0.86947779934068   -2.75073163040987
H          -2.63560201872574    0.39691608528679   -1.71844005504410
H          -1.38706773757607   -0.40100716792325   -2.50098294721998
