    26
        -50.46513931  Gyration_radius:  2.39145865558 Dipole_moment: 3.146
 S           1.16820081493149   -0.56378521877441    0.65304549983415
O           0.83543758577943   -0.69142319113035   -0.76805931362788
O           1.73270584059178   -1.80903269178669    1.14881941022557
O           2.22245615783925    0.57264127869638    0.79217203816647
O           0.00217333495282   -0.16304717537129    1.43570821055461
O          -0.86750432931462    2.68923589892187   -0.75516581062403
H          -1.25938817652581    3.55079941095060   -0.90415986313027
O          -2.00378645927323   -1.64113138185910    0.61306115355398
H          -2.16177341221226   -1.08212207456604   -0.18564999686120
H          -1.41367442462431   -1.07200206061038    1.15439948861313
O          -1.65406440443188    0.01955592195286   -1.42130386545386
H          -1.65888889777737    0.96770474662599   -1.23124113295149
H          -0.72231366895456   -0.24571964954548   -1.29353165117007
O           0.01014314245498    2.44456473466471    1.72837195413645
H           0.94574480370706    2.62767479456196    1.84103325418861
H          -0.63369994426282    2.64853212712756    0.20553582962202
H          -0.06556892115904    1.46454996585966    1.74924218268214
O           1.62271947515116    1.77193513705333   -1.41038626286393
H           2.11454111538861    1.14744390509255   -0.02385702999834
H           1.38661882735486    0.86863228738322   -1.67226833840307
H           0.76637957082331    2.22756486252975   -1.28658479994369
N          -0.07427422726296   -3.18946234465483   -0.08326324482730
H          -0.98428858439556   -2.62194174945753    0.20704172852128
H           0.12844876832430   -2.97994880722984   -1.05900549553665
H           0.72652262499748   -2.75293353471355    0.48903223790181
H          -0.16286661209712   -4.18828519171208    0.07701380739344
