    26
        -50.45301691  Gyration_radius:  2.45777227527 Dipole_moment: 2.641
 S           0.89653060271030    0.62739142575709   -0.99567446971389
O           0.29929188537743    1.93381518290848   -1.18989166960639
O           1.64692022442861    0.20803626462172   -2.29086197795158
O           1.89565296258900    0.61375643059426    0.07343461904799
O          -0.12833458091947   -0.38746029210898   -0.74194457186596
O          -0.10134643498083    0.28945812202164    2.99922587705441
H           0.19764856532385    0.80194026117978    3.75235143023731
O          -1.84021453157092   -1.25444533723418    1.24962189538481
H          -1.53696630989407   -0.80692213365696    2.04591873277008
H          -1.40794236448849   -0.80796095614735    0.50241909879306
O           0.31559227058121   -2.70032086852377    0.41013206819545
H           0.22786615060269   -2.00082456967913   -0.27675251657496
H          -0.55960192627172   -2.69321488537907    0.83802534797291
O          -0.91920403044449    1.93001491965820    1.12859006358260
H          -1.81045053537816    1.69845105821999    0.85553374738110
H          -0.35210456366363    0.94962594115227    2.29749933541124
H          -0.40277594753371    2.03287743788270    0.29736682394199
O           1.69283997957210   -1.12560526220630    1.79987947495377
H           1.18241629115469   -1.89399698866057    1.28721297576585
H           1.88951802248178   -0.39631197815559    1.03763939336052
H           1.00871303169713   -0.64714455012857    2.37396614045190
N          -0.54342950764704    0.72600650082643   -3.61766123775048
H          -0.76345664445488    1.10181989041273   -4.53109327297365
H          -0.60542930342093    1.47005270463735   -2.92793046356250
H          -1.23232383343283    0.02363152374344   -3.38158341161052
H           0.95059053758227    0.30733013826359   -2.99542345269601
