    26
        -50.45301692  Gyration_radius:  2.45769268878 Dipole_moment: 2.642
 S          -0.39104445195646   -1.41882601869449   -0.15146742992978
O          -1.02110560770941   -1.26069144225858    1.15980418117681
O          -1.34511537103724   -1.37548443595619   -1.24188218560967
O           0.65980296277649   -0.41475814350404   -0.33121022697109
O           0.30213497622584   -2.81005903690543   -0.13068382031155
O          -1.37984675730150    2.26806525187782    1.42760908904712
H          -2.19586842091508    2.56218363352011    1.83600385691172
O           2.18350502553838    0.51001345340405    1.59133590204246
H           2.21959601332311    1.39410196730756    1.18379109524077
H           1.84070212807675   -0.05305625044614    0.86034103723360
O           1.07617242098544    2.31200715918023   -0.13229851139952
H           0.30091563490019    2.64537502330599    0.33046439128920
H           0.86096336734829    1.40608211407469   -0.41070386041741
O          -1.94025328121681    1.14816261874058   -0.87253509292389
H          -1.64299921468457    1.80474758574776    0.58660592083159
H          -1.41939048163669    1.55309656338108   -1.57046107968104
H          -1.83606866846940    0.17678887438537   -0.99011348201423
O          -0.07783457869253    0.42563121701345    2.68078140155979
H          -0.48493629829302   -0.38223631980209    2.10346100053717
H           0.92460099619460    0.48659235493709    2.35632617227018
H          -0.56422861892497    1.22483735513836    2.29198106960237
N           0.85879278197939   -2.46811213894929   -2.66022608588648
H          -0.05524691279943   -2.02359148125737   -2.64595627304934
H           0.92334688766033   -3.06680510255317   -3.47345636078851
H           1.55801140979362   -1.74095258671592   -2.73690281541430
H           0.64539407881859   -2.90311222494913   -1.06060788334107
