    26
        -50.46513926  Gyration_radius:  2.39148203284 Dipole_moment: 3.139
 S           0.57894738743364   -0.37786174695856   -1.27951139093653
O           0.48466146856008   -0.13792381823474   -2.71078623235328
O           1.61842597784591   -1.50482345933310   -1.01191761178795
O           1.04739549748817    0.81187586014885   -0.57379770419661
O          -0.71309682384718   -0.83023193303169   -0.75751242054693
O           0.55744296580719   -0.61988113844259    2.80292006269271
H           0.77303976848737   -0.67840956160880    3.73463952643148
O          -1.00560165332969    2.43435065237364   -0.37717138026742
H          -0.09388545038036    2.07126315117981   -0.42288778661842
H          -1.38911711978740    1.94602642853438    0.39096416499050
O          -1.62526397711673    0.52704828136309    1.35299374125204
H          -0.97492598280738    0.31486229899190    2.03662498336861
H          -1.37537481276911   -0.04290816652222    0.59953212381249
O           2.66077845067393    0.09456352911415    1.36695798528128
H           1.36697509140627   -0.27875503088858    2.34721155168450
H           3.13904000868735   -0.63565386071287    0.96753118878951
H           2.13473150252676    0.48960106048984    0.63626688408004
O           0.33267416033820   -2.60327455227273    0.93505679366036
H           0.40474416458492   -2.02163401969565    1.71777152357687
H          -0.42666918274371   -2.25852647111454    0.44023718052258
H           1.24740361540262   -2.04373052875559   -0.25067473314471
N          -1.77894760868702    1.07887593956683   -2.41890943207611
H          -2.37487908332481    0.33369336003913   -2.06302260020343
H          -1.53010811168852    1.75279724051507   -1.57109970868169
H          -0.84812337057687    0.61239455623271   -2.69300950596986
H          -2.21026688217028    1.56626193902787   -3.19840718336449
