    26
        -50.46115534  Gyration_radius:  2.63824597122 Dipole_moment: 7.514
 S           0.44557884033819    0.60007336171431   -0.26426399894575
O          -0.28330533492024   -0.48788930087526   -0.95071118066480
O           1.84150231852059    0.19990828334033   -0.05137757252336
O           0.49253598615674    1.79949530548117   -1.22387955952516
O          -0.21488833299406    0.98320425479538    0.96402449773422
O           1.39730523501670   -3.43560178902918    1.33249951356591
H           2.10222791038991   -3.85086597651448    1.83209427948566
O          -2.81034065325315    0.22884370746788   -1.34436121350035
H          -3.03184979862828   -0.16234948916784   -2.19113984587486
H          -1.91601298987502   -0.09982507328918   -1.11441332877418
O          -1.63997538371087    3.20517607879377    1.31257043971905
H          -1.17574891861107    2.34244640166914    1.30685737518836
H          -0.99327467406964    3.85154646144361    1.60048675427734
O          -1.85053919027794    2.73908384842973   -1.32007051970753
H          -2.38087333282001    1.91459280455755   -1.35187984645668
H          -1.94217295270940    3.06787041805532   -0.39976864721399
H          -0.44759125794689    2.21783854793130   -1.31259450952930
O           1.19959980352422   -0.97408301474946    2.25959211045101
H           1.63893309727968   -0.48230901263426    1.54112426633838
H           0.36195736803008   -0.50622161071086    2.35356868176955
H           1.21827005263370   -2.57176456146310    1.78500731776980
N           1.62413622887535   -2.16454844803994   -0.98189333025668
H           1.57710369331750   -2.82805271196873   -0.16298021415632
H           0.66319871407088   -1.72842598650283   -1.13064458675533
H           2.10637167077227   -1.27747500970530   -0.66997975953586
H           2.01785189090194   -2.58066746904710   -1.81786713289251
