    26
        -50.46042126  Gyration_radius:  2.39379901554 Dipole_moment: 5.475
 S           0.90945334546322    1.03851962448127   -0.66632611053953
O           1.45017262866263    1.57570961413057   -1.88586077153698
O           1.17997397798219   -0.40390294639800   -0.52244168991970
O           1.26332999772105    1.74115435679193    0.55351924011043
O          -0.65327826166774    1.15835601553290   -0.84309983050513
O           0.08783578686260   -1.85873097184206    2.02422878789904
H          -0.08704458826819   -1.93020387539153    2.96457212639092
O          -0.85270800822293    1.73286959274306    2.20796918370343
H          -0.04934602307126    1.77102579548605    1.64895260139569
H          -0.97700595453919    2.62089414677650    2.54431022613057
O          -0.25212253501998    0.36171538842184   -3.47492134487019
H           0.48129085572291    0.79775449236266   -2.97133599390247
H          -0.90603632449116    1.05521468686689   -3.58930702083018
O          -1.79149941823768   -0.41485392550282    0.86577533031411
H          -1.10341897432345   -1.01961789681881    1.24827831986569
H          -1.84751409759827    0.30081285806852    1.51931749051151
H          -1.10534566823584    0.60991996091671   -0.14166697128091
O           2.26670272035438   -0.30519063399416    1.98478131769329
H           1.94455607063079    0.51718457961559    1.56647403622702
H           0.90208865929798   -1.30185154314726    1.95332791193658
H           2.79189518972778   -0.73210206898523    1.30383626096238
N          -0.76619320866985   -1.50160052362820   -1.66945040157592
H          -1.56812741649228   -1.32948307167972   -1.06153509482424
H          -0.70922806809585   -2.47479320476440   -1.94923437661680
H          -0.74075334006682   -0.83558210265890   -2.49510609623639
H           0.13232267463358   -1.17321832739226   -1.11505714049879
