    26
        -50.46521626  Gyration_radius:  2.38447653291 Dipole_moment: 4.703
 S           1.39588327854273   -0.39956753416728   -0.94613043665059
O           1.24197088921563   -1.34994843700358    0.30848128238840
O           1.59564661876918   -1.32451870505275   -2.06088051423502
O           0.11536868692598    0.28320418983933   -1.10025746905592
O           2.48715659056822    0.50796911382845   -0.68639589148980
O          -1.91273680780959    0.32989817841304    1.57726643833773
H          -2.70251294675027    0.58306238843108    2.05628051493024
O           1.71492851286564    2.31453700042803    1.01947441336824
H           2.01471165796408    1.68962007705706    0.30841134132887
H           2.50460595646269    2.77670587410858    1.30547969867062
O          -1.39259024480837   -1.98687303610164    0.15176253168979
H          -1.71625897087003   -1.17741004576523    0.59075187517500
H          -0.44021625373361   -2.00148508136161    0.35458798381463
O          -0.95620154198478    2.31344771624885    0.16429750739322
H          -0.16493936026475    2.67298143035854    0.58723313337252
H          -0.59363739996802    1.65147339913477   -0.46323305471094
H          -1.64148010359079    1.12062021185660    1.03080713230094
O           0.73806964614891    0.15108984159776    2.31755905306687
H           1.14277074185392   -0.78308233481109    1.14109207554962
H           1.07499537614278    1.01548690348157    2.00730375626574
H          -0.23124288055065    0.18441093571924    2.22677789611802
N          -0.88341265633476   -1.73707043772441   -2.40917174847018
H           0.21611521637245   -1.64387225484906   -2.33717372374851
H          -1.21563840160828   -0.83152167971839   -2.73227223821579
H          -1.17816217287944   -2.49422976037022   -3.01776497489789
H          -1.21319342067949   -1.86492795357307   -1.39428660229348
