    26
        -50.46521623  Gyration_radius:  2.38447941412 Dipole_moment: 4.702
 S          -0.90410786323286    1.47814825307949    0.02857827708960
O          -1.64912079314779    1.61779574492544    1.25635954365953
O          -1.61316648897993    0.37043702481438   -0.84956544839164
O          -0.89124023964319    2.65481499815585   -0.83946624054843
O           0.46268058809200    1.01455582243446    0.24461236298127
O           1.04910233739011   -2.25887533082779   -0.22929063345120
H           1.59286737899423   -3.04726497671347   -0.22288022976073
O          -1.14891636653116   -0.41558822142445    2.80069723799814
H          -1.79152582967067   -0.38468329540744    3.51137085138569
H          -1.29796419681800    0.41067790261659    2.27052403981590
O           0.48038005567507   -0.53615573430232   -2.32179273414358
H          -0.41675286374625   -0.31728310276351   -2.01256793789646
H           0.82434976288628   -1.14444344621789   -1.64034616408197
O          -1.56696419167100   -1.79523949294216    0.51107230530763
H          -1.44401696756146   -1.45456690002327    1.41979103307206
H          -1.70437498641797   -0.47582780172209   -0.30186886888259
H          -0.69745180762814   -2.12399623021407    0.21990527974556
O           1.47609840219289   -0.76741058076646    1.87765150777296
H           1.22657353864634    0.01337528768158    1.33769707838447
H           0.74040112588438   -0.85002969567817    2.49904539511807
H           1.30524725362205   -1.72577849655471    0.57547699826510
N           1.22377843810698    1.96558980546959   -2.05948857668007
H           1.93162318528230    2.03277647240659   -1.33208785642273
H           1.49170529325154    2.46173802128178   -2.90359265649583
H           1.02843829190385    0.92304753049631   -2.23249210404481
H           0.29235696314777    2.35418646217197   -1.60734245976298
