    26
        -50.46041498  Gyration_radius:  2.42325769726 Dipole_moment: 7.838
 S          -1.22836047941648    0.41640230831919   -0.31738323702864
O          -2.25135190644239    0.16981296459024   -1.32834003387568
O          -0.10691467561368    1.17200834495379   -0.90594178291686
O          -1.86157863575533    1.24319701745334    0.79446140074769
O          -0.71598970287268   -0.83650365758586    0.24607468449591
O           0.12004983597872   -1.20726392874312    2.89051486888144
H          -0.45490840623335   -1.34949665563472    2.12545006816759
O           1.65648429874221    2.02501446840468    0.82657458054450
H           1.01189682563120    1.74541975895842    0.13146812443945
H           1.86176786751995    2.94477948253087    0.65395436157158
O          -0.05117822606988   -2.41803963864827   -1.76020195838878
H          -0.26658069971139   -1.90989991213796   -0.94256917141595
H          -0.56778297867878   -3.22407736675738   -1.71439650813890
O          -0.22578512148761    1.41082418752493    2.68723424363029
H          -0.09991863957242    0.46371233450323    2.95203310655457
H           0.58485863420159    1.67419129937953    2.21000021640029
H          -1.22263917602152    1.34036865785143    1.61533161985459
O           1.99361442428213   -0.78891165693902    0.92336056251985
H           1.11201928051910   -0.81860083286908    0.52043820893961
H           2.24192147199689    0.14221797861184    0.93495134911338
H           1.01801424235352   -1.26865509820723    2.52101069424894
N          -0.49179333547201   -0.18860540927999   -3.08093647981204
H           0.07185338369064    0.47392580593699   -2.50854188538685
H          -0.19658392507626   -1.16669341696928   -2.83343205509418
H          -1.44156183795504   -0.05613893593628   -2.56596370026818
H          -0.48955252851028    0.01101188081970   -4.07515126778563
