    26
        -50.46521627  Gyration_radius:  2.38447458782 Dipole_moment: 4.703
 S           0.28665580592106    0.53930096131718   -1.62181608439854
O           0.06891740648772   -0.09477507013074   -2.92129277942322
O           0.80421470075343   -0.44550174471877   -0.67738498317622
O           1.06232947786327    1.75576521256600   -1.64433179454101
O          -1.17244101750256    0.89957681477829   -1.12967072123802
O          -0.71962759010810   -0.63135197124401    2.31054863439949
H          -0.83049648663097   -0.96155101416263    3.20272431324621
O           1.67858302969022    2.42720540457848    0.79275911291593
H           1.52934403262072    2.15578801001503   -0.15067189829899
H           2.02381705135458    3.32058867891009    0.75189948092167
O          -1.94291698656210   -1.46085459802982   -0.03156912791773
H          -1.50233140242356   -1.31859356365677    0.82770920299239
H          -1.94768346256055   -0.57869393273859   -0.44405549174719
O          -0.93914103087437    1.89103068801883    1.21682291523736
H          -1.11070207251580    1.38827250541797   -0.24548703341119
H          -0.97598151462987    1.05982195091720    1.72343327774563
H          -0.00303970881713    2.17505872371917    1.21870474379711
O           1.79825418334528   -0.21125203227209    1.73638049420917
H           1.58274428792876   -0.39385571040685    0.79634360240538
H           1.98726345149418    0.73664188346652    1.73925297751848
H           0.26317401763863   -0.54429323838018    2.15575305679258
N          -0.39555995387536   -2.38645913846340   -1.93654391939828
H          -1.04818501557676   -2.12974628765631   -1.12212388923090
H           0.50591921302435   -2.64544846695151   -1.54278453387526
H          -0.77740419117053   -3.11327942563687   -2.53360527763792
H          -0.22570622487394   -1.43339463925713   -2.47099426789271
