    26
        -50.46041491  Gyration_radius:  2.42327992974 Dipole_moment: 7.841
 S           1.11725315202432   -0.26868713365227   -0.68028767938303
O           1.57288985571126   -1.14701315456721   -1.75284572856822
O           2.34724024483141    0.36341421914808   -0.04133302415954
O           0.25457156459806    0.79431029328965   -1.22880309555723
O           0.37073983229315   -1.00966569579426    0.34112269664464
O           0.36986693126858   -0.44509643031575    3.08125788851744
H           0.55962624773614   -0.97812085115145    2.29633364869377
O          -0.37056920413763    2.67500225251158    0.47744143370263
H          -0.14987064905713    2.00367565122380   -0.21350969083834
H          -0.24640367706889    3.53431000161294    0.07240347594390
O          -1.47313444444947   -2.44690006995474   -0.88521328683850
H          -0.82283035196226   -1.95341079766244   -0.33149468875754
H          -1.32972290710711   -3.37565762018778   -0.69710430158438
O           1.61971074480674    1.62451566112622    1.99995139827780
H           1.22922423461790    0.91224748460315    2.56855301041939
H           2.10222898632320    0.89910593836364    0.82146417412312
H           0.86797607775252    2.13711075913042    1.64444132826611
O          -1.72442203563536    0.41253249890820    1.52090504688162
H          -1.57226251099746    1.33608721073860    1.29144206096849
H          -1.10797824743726   -0.09723018996352    0.97269113276839
H          -0.54829985694409   -0.15256063276321    2.94711388146440
N          -0.65183346482580   -0.97107997032773   -2.89943249186108
H          -0.69226930268150   -0.02839035817874   -2.45897026817336
H           0.38529310552141   -1.20003980173990   -2.66085804947222
H          -1.20785693282718   -1.63397428238399   -2.30251444953536
H          -0.89916739228493   -0.98448497204000   -3.88275443196770
