    26
        -50.46041491  Gyration_radius:  2.42325566036 Dipole_moment: 7.839
 S           1.10954852437704    0.74258724291819   -0.01678246769110
O          -0.31480636232922    1.08282942174741    0.05473632232841
O           1.72810302307279    0.88483363670691    1.36804647567610
O           1.24733458303887   -0.65439810077922   -0.46904997064733
O           1.82840745864769    1.63456321411018   -0.92065045085065
O          -1.93176681326141    0.83332484790233    2.32409020315944
H          -1.46579982665171    1.31910844219324    1.62903487168049
O           0.33704579162166   -2.43676954867298    1.21444482557912
H           0.97691025720680   -3.14245258045192    1.31676831015446
H           0.71453747092845   -1.80883100500232    0.55117569193494
O          -1.23111081210352    1.26416661835179   -2.41475281133569
H          -0.99235642678715    1.22224387792823   -1.45861879492937
H          -1.57254417401777    2.14729838554312   -2.56369672175577
O          -2.02218369315358   -1.10425740739437    0.37673208208756
H          -1.45790761615547   -1.83578705131906    0.65096234804017
H          -2.36245985810197    0.10235148555482    1.84792150871704
H          -1.41765338801798   -0.39991675734278    0.09580476259083
O           0.31703505446164   -0.39021825271815    3.00174892390734
H          -0.55987731100220    0.06791504127297    2.93645093233105
H           0.21842970728550   -1.24356972618330    2.53671684122336
H           1.17428610767159    0.37539311212619    2.09295791238127
N           1.14530505339968    0.24958081817483   -2.89816463739881
H           1.62282768224955    0.05029701348395   -3.77025961633109
H           0.15518051309276    0.58345340131572   -3.01157529217549
H           1.14449646335932   -0.53951092872961   -2.21862824779674
H           1.60901860117462    0.99576480928799   -2.25541299088743
