    26
        -50.45985142  Gyration_radius:  2.49486485623 Dipole_moment: 7.800
 S           1.35411792879471   -0.14785954848751   -0.11504884412576
O           0.23184725305370   -1.08711672644193   -0.11952412613658
O           2.43688609962653   -0.60503943697679   -0.98215902956222
O           0.87961210676537    1.18011821520233   -0.55263039034437
O           1.91553785764252   -0.03976461337568    1.29903375824324
O          -1.34427765679978   -1.38733785200996    3.07722438166050
H          -0.81268216559699   -2.14081416184790    2.81444572421332
O          -1.14949359782752    2.06209701395117    0.83057781212632
H          -1.14127906619097    3.01936339832847    0.78956527982792
H          -0.40023113970938    1.75095127409890    0.26422668392311
O          -0.51708777626851   -1.39752396908229   -2.62129140322651
H          -0.31891887989001   -1.32248873016771   -1.65540503051353
H          -0.54854505110017   -2.33691202131147   -2.80903650472340
O           0.14340694488664    0.80047970479243    2.87008876586928
H          -0.43240754877899    1.33538804066385    2.29056906784528
H          -0.38833294180049    0.00121854099148    3.11015900298720
H           1.21110796254443    0.31668531328217    1.97624214827563
O          -2.26425054327588   -0.53074284703119    0.72663134416938
H          -1.40570526732806   -0.79386623297071    0.34468986561061
H          -1.87048399941711   -1.14109900349774    2.28020405095976
H          -2.23821446778981    0.43350237541028    0.75477713532309
N           1.33863448645871    0.42802043096157   -2.98365692360386
H           0.56656519036066   -0.26372068540123   -3.15323144684638
H           1.73430777698995    0.83348153678599   -3.82440220056774
H           0.98631255001733    1.12175515720904   -2.28970704989954
H           2.03357394463549   -0.08877520307379   -2.32234206148866
