    26
        -50.45856229  Gyration_radius:  2.57488412265 Dipole_moment: 5.490
 S          -0.06125722730083   -0.90790832984240   -0.60713306440455
O          -0.69793794800960   -1.83923622051145   -1.50823136938270
O          -0.50627877098332    0.51045619962202   -1.08464531973360
O          -0.61949104175417   -1.03456344215081    0.76333412839662
O           1.38601381617276   -0.96576436231458   -0.60368751157767
O           1.66840851588848    1.66263837679967    2.31409811552589
H           2.55516318906255    1.95907230073848    2.52603402311847
O           3.08490889311195    0.94945598404351   -1.35170034774750
H           2.56823235512459    0.16105930620434   -1.08711622432046
H           3.20345728792490    0.88280966394517   -2.30017969704612
O          -3.27544497847969   -1.82402467782824   -1.60499671148152
H          -3.53405789166602   -2.73097409769587   -1.43102589199877
H          -2.28358754908842   -1.84773313043835   -1.70723319837199
O           1.04875594010476    2.27128576766703   -0.20229331900747
H           1.88399783944915    2.00514388595710   -0.64036200575811
H           0.13025168230365    1.24170397394791   -0.71619932295168
H           1.20290252376454    2.11727575656659    0.76113975242333
O           1.75241399818636   -0.98023434061778    2.04556331899232
H           1.71222842540375    0.67443598141259    2.29467705181200
H           0.80826063993684   -1.18213739930043    2.08503482374941
H           1.93812791181799   -1.05011580308010    1.09276785536482
N          -2.83616368512457    0.00888944344904    0.21341812340329
H          -1.89782981609807   -0.46592275690382    0.58921161895124
H          -3.48827301088190    0.26567426356230    0.94708279858627
H          -2.51357483359955    0.81976168100227   -0.31575876305113
H          -3.22922626525959   -0.70104803425093   -0.47179886346744
