    26
        -50.46521628  Gyration_radius:  2.38446103513 Dipole_moment: 4.703
 S           0.96563257505750    1.16801274984492   -0.84042170611740
O          -0.11577963524553    0.22686775657734   -1.11325681053434
O           2.00231343492642    1.03347597617306   -1.86282291524346
O           0.49360223633320    2.51101196374958   -0.60483053449543
O           1.67141005844761    0.65972703626081    0.48035191203300
O          -1.14831594026925   -1.68398698379859    1.44929605015627
H          -1.71441521342235   -2.33424735931647    1.86640495843150
O          -1.62411980587690    2.42530370449441    0.90446702849456
H          -1.79442759386422    3.32473705230027    1.18898857012370
H          -0.86820008775033    2.48716800183455    0.26356142645163
O           1.32468961525154   -2.02305046854025    0.24960638755255
H           1.66313114428261   -1.14459615657822    0.49893988380261
H           0.41495185891791   -2.03587206987334    0.60305795698898
O          -2.50698547843004   -0.04945133693298   -0.07651737731851
H          -1.70195419356812    0.05607623388434   -0.62812571024759
H          -1.73133815879472   -1.13509898523959    0.85241838712875
H          -2.59476531853973    0.81210668925436    0.35276181618882
O          -0.09492591757517    0.70791368704062    2.32988212063014
H          -0.46758284022316   -0.18112364604798    2.18962481643422
H           1.03018951731960    0.76164016955327    1.25683323183482
H          -0.74517298479873    1.34126715375149    1.96516980478110
N           1.52215486089765   -1.41999027884460   -2.29544956079531
H           1.42431231462730   -1.78867254050378   -1.29067584341350
H           0.59321675909019   -1.39459883242331   -2.70915222508040
H           1.82620700604351   -0.36329264759775   -2.17814493327003
H           2.17617179716428   -1.96132686902930   -2.85196670451423
