    26
        -50.45424214  Gyration_radius:  2.49808677578 Dipole_moment: 3.417
 S           1.05457840262195   -0.09238190467558   -0.99866805684179
O           1.83250961255047    0.25449189719671   -2.26926919552749
O           0.52443968028100   -1.48961471644090   -1.28307876038664
O           1.95383637756984   -0.09425966521811    0.12525461621205
O          -0.06321494473307    0.81165448255806   -0.84957073203669
O           0.57769980434080   -1.05423641777996    2.30367983017215
H           1.31154199453640   -0.87367145685241    1.69775712560203
O           1.94656338500915    2.02361835306786    1.87455402653702
H           2.61152832216434    1.82529268273966    2.53643747653568
H           2.04653195947049    1.34960016417042    1.18012099699798
O          -2.81288820702123   -0.43437903287780    1.18634874285581
H          -3.26103742891157   -0.65936618242093    2.00411152750604
H          -2.21951126773659    0.30462275829238    1.39285601813523
O          -0.68526343203219    1.28609250858532    1.70203440558240
H           0.06411418897523   -0.22056518142493    2.31683675429318
H           0.05440962476679    1.83852176765390    2.00302312962550
H          -0.53081892934405    1.20779039505591    0.73909186871289
O          -0.94101423411572   -2.25449581897849    0.55190140592005
H          -0.37010353826391   -1.99735746278249    1.32695314932216
H          -1.72216739811988   -1.65815435010509    0.61469194122597
H          -0.14163343104428   -1.86580371814312   -0.50884215632845
N          -0.32539527019435    0.36312158705620   -3.63209125274331
H          -0.78533130135938    0.69700210255853   -2.78994567265586
H           1.09049520538381    0.31802837334488   -2.97808463380205
H          -0.66787798818929   -0.56509627445319   -3.84192194632720
H          -0.54199118660288    0.97954510989996   -4.40418059866142
