    26
        -50.46094118  Gyration_radius:  2.6324530722 Dipole_moment: 7.524
 S          -0.34036052087801    0.47311940069705   -0.64975962281954
O           0.89330644226400   -0.28196460750329   -0.81319496290550
O          -0.23136422363530    1.78893186107874   -1.42849274654854
O          -1.49448172656274   -0.24248086239049   -1.19992814753300
O          -0.57748494300583    0.79753033251727    0.76852173177429
O          -1.37928902140074   -3.30518458037527    1.25634276920858
H          -1.73455723357300   -4.18978201936600    1.15935276081239
O           1.14266180110377    2.49603435863111    1.86273184987056
H           0.54139447385316    1.79693125844883    1.52731852728979
H           0.58118037439702    3.16831995917814    2.25228251580592
O           3.31374788166940    0.74182424764089   -1.23779182157298
H           2.49007542558704    0.26212847384987   -1.01288110481268
H           3.50997894286849    0.51859258008943   -2.14902798077609
O          -0.18937375816254   -2.67628119790858   -1.00788731462548
H          -0.89372837039532   -2.30260689585166   -1.54887377165150
H           0.40969186292693   -1.91173619564845   -0.88044907241205
H          -0.81643520832809   -3.14324756875490    0.45354642929689
O           1.88514147100457    2.93782335304427   -0.67617268680037
H           0.62618447150420    2.29907786801091   -1.15391982171489
H           1.78119805602097    2.89959486848709    0.29900292140827
H           2.57102597089974    2.26809856250605   -0.88892302327993
N          -2.46558510212809   -0.89728214821007    1.04805731379574
H          -3.39137823552172   -0.68001551941528    1.39880456643516
H          -2.15479572127034   -1.87628618277586    1.27681423756385
H          -2.34537397423969   -0.73832144972483   -0.00434581720230
H          -1.73137916500704   -0.20281788624481    1.34887230139420
