    26
        -50.46094117  Gyration_radius:  2.63247398838 Dipole_moment: 7.520
 S          -0.46277364786842    0.66728234725876   -0.32181628308703
O          -0.40985325822640    1.90369918152708   -1.22638090551158
O          -0.10156341299673   -0.50980239077511   -1.13245016467363
O           0.46691588172783    0.84450506231110    0.78407977510880
O          -1.84720369480255    0.54984170363415    0.14320307922116
O          -1.39796779259145   -2.79581978535847    2.15236813965004
H          -1.91454756279360   -3.16276048873958    2.87116335609816
O           2.17469339512787   -0.32562692206906   -2.48422021162253
H           1.92377555784985   -0.54969493964256   -3.38193857694234
H           1.37748040444746   -0.47331621755712   -1.93162389998348
O           2.70938804363445    2.27808476949040    0.73157449065945
H           1.95175390072676    1.66735078848264    0.84210469189201
H           2.51672716246586    3.04112558294847    1.27880126801901
O           2.00546469402221    2.27568225162535   -1.85352957728144
H           2.25962521447468    1.37823801650146   -2.15892304115022
H           0.56583527588033    2.09873499359777   -1.51104763613921
H           2.43358277373757    2.38040148013206   -0.97604363594445
O          -1.02541737247809   -0.23912823624658    2.66613421926573
H          -1.14855532255461   -1.87555118089780    2.43220471520677
H          -0.29357855134522    0.11840768789900    2.12189134865129
H          -1.79875321422130    0.19303240450143    2.28716895921718
N          -2.03152695504338   -1.94335254540353   -0.27552410828000
H          -1.12505701806832   -1.72958693681398   -0.77016275978845
H          -2.27767301184179   -0.92598284265627   -0.04866152071466
H          -2.70904220641122   -2.41412093227234   -0.86434424554528
H          -1.84172928285928   -2.45164284147442    0.62597251368466
