    26
        -50.45491423  Gyration_radius:  2.43193262417 Dipole_moment: 6.961
 S           1.51604774125486   -0.59856476992057   -1.05537236442963
O           0.26860924049770   -1.27830179612521   -1.52150376134612
O           2.69496630603697   -1.18306821051482   -1.58774947356093
O           1.35951227800653    0.86699525447492   -1.61039673919130
O           1.47745084394501   -0.48324355605946    0.40099615046705
O          -1.93821121889663    0.78728739582828    1.11998817038904
H          -2.72147640889112    0.86928193259451    1.66432129414740
O           2.47276046961072    1.70358736871179    1.51552246737792
H           3.34843474784516    1.84739740804197    1.15405638794848
H           2.20193443598533    0.80678467898455    1.22407548692383
O          -1.09757875464889   -3.06658146135415   -0.09664823798917
H          -0.63200534854457   -3.90341951122135   -0.06055047894543
H          -0.57565329348096   -2.49123773541456   -0.69419399784642
O           0.22653919746443    2.33448348807681    0.21462195650593
H           0.96512257910585    1.42976613284695   -0.88949060865440
H          -0.47194984027190    1.89533429713809    0.72387867166591
H           1.00795392242872    2.35084611845750    0.80654161231728
O          -0.60014788689714   -1.25126326387738    1.85030494492441
H          -1.42511042675862   -0.01863840032489    1.47869211096555
H          -0.91242143387377   -2.00126378983576    1.30607038403516
H           0.26269300985487   -1.00589487823810    1.45364589374103
N          -1.51348951849972    0.49453006401981   -1.49184151447429
H          -0.73862085108226   -0.32539081246346   -1.53068484371235
H          -1.05977139691400    1.35468897678039   -1.79481719719566
H          -2.29982415594066    0.26430943515217   -2.09088818433761
H          -1.81576425733301    0.60157564424238   -0.48857812972729
