    26
        -50.46117196  Gyration_radius:  2.41683275469 Dipole_moment: 3.326
 S           0.36778542858466   -0.36810094880604   -0.88648824634537
O          -0.89339527378996   -0.88714211396600   -1.37958162519429
O           0.84468379305732   -1.08410884094233    0.28791149227567
O           1.45477750229653   -0.49782747451418   -1.97790843116514
O           0.24367954509092    1.07349612063198   -0.58642631287160
O          -1.21441828760060    1.19321181843622    1.46775808619215
H          -0.69916009731137    1.31963967231277    0.59230866415195
O           2.36069316096478    1.72933611887057    0.94581412116824
H           3.13057131132144    1.30608220586286    0.56305132097736
H           1.63572535420805    1.60293677768506    0.30360718975117
O          -0.72489768760809   -2.54205065819594    1.92987041885992
H          -0.07999087077486   -2.24718329955172    1.26065227256511
H          -0.35672120461328   -2.29816072242001    2.78256016006634
O           0.83116261397880    0.23353832551686    2.58385483107043
H           1.49145913352715    0.92475138452454    2.38575553226963
H          -0.45794812959285    0.85321791633424    2.10444052312792
H           0.94106079857329   -0.38814143081083    1.82989942908486
O          -2.41773240150316   -0.85844248789945    0.77020777072829
H          -2.01715233366823   -0.93690990787241   -0.12735759721118
H          -2.00397131426412   -1.58984771517819    1.28693077995804
H          -1.84834746507346    0.33398768812860    1.24491270283748
N          -0.16147204608105    0.69753543796237   -3.60111419806836
H          -0.87731648267055    0.18293932297771   -3.09502643683107
H          -0.33629234444607    0.62314240918173   -4.59497166827537
H          -0.22583096551912    1.67019543772765   -3.33005619956559
H           1.01304825290576   -0.04609501601416   -2.76060458956286
