    26
        -50.46117191  Gyration_radius:  2.41702781608 Dipole_moment: 3.332
 S           0.14834484074768    0.84776695282024   -0.56200458035506
O          -1.23918295737008    1.26891365004756   -0.58601210745363
O           0.99197007063021    1.75825426404081   -1.48341801719743
O           0.73025996811279    0.91958171304489    0.77044625041808
O           0.27449508706770   -0.52377739718987   -1.09763986716918
O          -0.75726691296816   -2.01215355226801    0.65675309336005
H          -0.39710478660678   -1.54598379185035   -0.18073975637465
O           2.70273139671117   -1.42472411644623   -0.35535179932751
H           1.86294833764399   -1.13477003644579   -0.76124601480207
H           3.32759416099591   -0.71314998116691   -0.50229032025549
O          -0.69516605461556    0.92282840396105    3.06336142052559
H          -0.14890058219666    0.34992798698000    3.60695102812286
H          -0.14910049790651    1.16941388420333    2.29417489888116
O          -2.33018033727384   -0.20863454980501    1.30409156270268
H          -2.11287681269526    0.41328894976247    0.57045127098699
H          -1.52962402745131   -1.32179835593007    0.99537462452806
H          -1.93160456252949    0.20833002424828    2.10418565688190
O           1.31009014924620   -1.37783329695500    1.95068835177096
H           2.00976155308370   -1.70329708916303    1.35271884653912
H           1.19706113548767   -0.44549665188678    1.65907969528722
H           0.04988707363639   -1.90774465281372    1.31314582616825
N          -0.71856902753233    1.28934300476172   -3.36230512068475
H           0.47918883945520    1.70543142212371   -2.34727758004566
H          -0.60299943171364    0.33290692383200   -3.67138257748151
H          -1.39207549435617    1.29383714847795   -2.60087785552275
H          -1.07968111761159    1.83953914361761   -4.13087692949667
