    26
        -50.46117184  Gyration_radius:  2.41706518851 Dipole_moment: 3.333
 S          -0.15793131075157   -0.26854319712754    0.97897349494028
O           1.15557579537925   -0.35351774002208    0.30708635663730
O          -0.37754675601994    1.07420154185840    1.48070511949140
O          -1.21149840329577   -0.70569156337473    0.07447217542900
O          -0.11509509629967   -1.27069551293784    2.15520367848378
O           0.89032148146114    0.96594365410513   -1.82487812687732
H           1.18544542226870    0.48456610685635   -0.97056495951404
O           1.13130156061281   -2.61638277400262   -1.15497816183263
H           1.26473421305952   -1.84849450476800   -0.56625497838141
H           0.74084192309404   -3.30231381078268   -0.61149337414321
O          -2.86462617560673    0.95656156439444   -1.26424328823791
H          -2.90068686561025    0.51478803714113   -2.11599735332699
H          -2.47829692383143    0.31400201594331   -0.64096218283938
O          -0.74845813635915    2.46719371538448   -0.72620610897478
H          -0.63021843328231    2.12773896546979    0.19186280435592
H           0.20149349919373    1.71914968108136   -1.44347023131524
H          -1.63391259103462    2.12938045073149   -0.99949809403047
O          -0.56114450079773   -0.98846842605840   -2.47584988875009
H           0.30790350133124    0.22951370881454   -2.28503657931165
H           0.07709979835623   -1.72393488325208   -2.40671178178258
H          -0.96783940236541   -0.97449089473108   -1.58059743919805
N           1.64567495064315    0.25414113292463    3.27333369331974
H           2.51380880229586    0.17463036773643    2.75988983803938
H           0.57630416726909   -0.85272078314554    2.75465642544907
H           1.85527270253840    0.48911948347028    4.23492760034056
H           1.10147677777222    1.00432365427888    2.85563137204417
