    26
        -50.46117197  Gyration_radius:  2.41679174404 Dipole_moment: 3.325
 S           0.91082231635558    0.47695268461999   -0.01988079176860
O           1.90157521618204    1.57210275319311    0.43703174216199
O          -0.37580196113337    1.15603938144812   -0.27859049471172
O           1.39585190551409   -0.15523697343149   -1.23145034282594
O           0.76670081456071   -0.46437282943584    1.08131082475559
O          -2.04630101600277   -0.70464265269203   -0.60679143516716
H          -1.48482358471111    0.15117776369928   -0.59434978183070
O          -1.48616912889324    1.65259604237345    2.12549501559191
H          -0.79094308388934    1.98077704995769    2.69760955421434
H          -1.10270595156358    1.61626064372869    1.22791791634594
O           0.51539536532664   -3.13540791847645    0.78416312244517
H          -0.15253567570535   -3.32116326214759    1.44858603151344
H           0.84112030969422   -2.23535738900670    0.96992075739372
O          -1.69850040739439   -1.02095657056854    1.86891142594473
H          -1.96929521562843   -0.14597413564909    2.20677550738841
H          -2.07322599340469   -0.94776983000333    0.40989039360711
H          -0.73013708870900   -0.90874810952720    1.73937883600178
O          -0.28029989057258   -2.16335987930835   -1.55428665872430
H          -1.37422295961968   -1.41919653070263   -1.08361510813851
H           0.42780174559378   -1.47947380296095   -1.60948206953761
H           0.00082862386723   -2.74664822588063   -0.81013772744329
N           1.78051920766909    2.54913682645328   -1.95207233079486
H           1.71118279464497    1.57388643317220   -2.23035546177215
H           1.99498561605233    2.12405733929351   -0.39860404444191
H           2.44693295010256    3.02047939943818   -2.55006056460205
H           0.87124508167162    2.97484180242774   -2.07731433559952
