    26
        -50.46954184  Gyration_radius:  2.39881219797 Dipole_moment: 4.984
 S           0.96268350773119    1.26228697059365    0.11814218828329
O          -0.15334983913707    1.25377093696418   -0.85099895544588
O           1.25670583661008   -0.10502469007740    0.55321424883702
O           2.11766517757962    1.93238744885368   -0.41256028256311
O           0.42302181573162    2.03807290706886    1.35994554594413
O          -2.29811562694326   -1.00538188781078    1.28047950896575
H          -3.15708836352274   -1.30095876106797    1.58493533590810
O           2.91635587722575   -0.18591455084086   -1.76549727796969
H           2.73678060878333    0.69322721871157   -1.35803156345962
H           3.17448621075710   -0.74117129576524   -1.02475764251990
O          -0.23385135831814   -2.15831457501995   -0.22236395824551
H          -1.07714074889886   -1.93986162036387    0.20428974711673
H           0.40121915957558   -1.52138654244692    0.16865397090036
O          -2.39838415207288    1.50379193484351    0.47395736817786
H          -2.18588919889364    2.14805947093587    1.15339247008358
H          -1.60909505710684    1.48084523541186   -0.11345549158304
H          -2.42269317026557   -0.08524701920952    0.93368033783910
O          -0.18236652449220   -0.05118151854506    2.77630519005042
H          -0.98991933097996   -0.45907436905512    2.41279180766513
H           0.54198682607694   -0.40971755788391    2.23900079035777
H           0.14535214406662    1.34442986738017    2.02040394502266
N           0.39573309608389   -0.76068496408741   -2.35200254606933
H           1.44781420349770   -0.67296159426515   -2.28916286588012
H           0.07008186279550   -1.52121392320024   -1.69156093753476
H           0.05168646864718    0.13891149198475   -1.89551537606115
H           0.06632057547492   -0.87768859310475   -3.30328554781825
