    26
        -50.45347416  Gyration_radius:  2.42588348243 Dipole_moment: 7.720
 S           0.34243062727574   -0.00281854219180   -2.11876488425111
O           0.33924525871737   -0.12314750814055   -3.53279010275494
O           1.42875971229748   -0.67827716605582   -1.41973905107123
O           0.43877676257143    1.52475592300879   -1.74515398660736
O          -0.96269706097333   -0.42350699892766   -1.50463308340768
O          -1.42039515406289    0.51649524572182    1.98806349236280
H          -1.81575151302839    0.42110213160677    2.85474777261662
O           2.91123701539999   -0.02621769991165    0.74845639143808
H           2.70175977188895   -0.84831708663997    1.20461787704190
H           2.65157174452864   -0.18814158614877   -0.17614566857667
O           1.31641965396434   -2.48059291337632    0.48982779767540
H           1.34090638166551   -1.84903437361783   -0.26956310974512
H           1.51877981204107   -3.34105001256706    0.12060337528693
O           0.85090054917228    1.65471510394016    0.80624780679595
H           0.68412913093160    1.56761718803776   -0.77918320521165
H           0.18808350092056    1.22121763178204    1.36403242706659
H           1.68733994792709    1.14763796157963    0.92336159383142
O          -1.25731812624587   -1.75612836757265    0.79945502010721
H          -0.36272535021586   -2.13798883748508    0.90192578680893
H          -1.35820228798954   -0.41429536794785    1.59662398007464
H          -1.26217990776014   -1.42494350571212   -0.12076727819351
N          -2.02380420778238    1.56400719378260   -0.41801558513633
H          -1.93194733408322    1.32607921361717    0.59435377591594
H          -1.41842475016175    2.34834921965835   -0.65341384112193
H          -1.59998262485714    0.65821653035054   -0.97492102466283
H          -2.98691155214154    1.74426660320785   -0.67922626627900
