    26
        -50.46954173  Gyration_radius:  2.39868172571 Dipole_moment: 4.984
 S          -0.69110201217901   -1.39980398459660   -0.30675199836359
O           0.72393647694116   -1.16307172480336   -0.66210743946208
O          -1.35409914598533   -2.20958906287810   -1.29129807509298
O          -0.65181563664403   -2.15185171887235    1.05996810963593
O          -1.37009615041071   -0.12183867592895   -0.08068845336568
O           1.27554758160281    1.27373601244536    2.16376042446986
H           1.84350967610304    1.68112479148247    2.81904791833926
O          -0.04710115541992    2.17682038558845   -0.13564642921741
H           0.53652051169976    2.06788024782285    0.63139879281594
H          -0.67618327606511    1.42789743637369   -0.06305024619564
O          -1.79360765639222   -0.16658843595705   -2.90031945698310
H          -2.44307803472787    0.29900447249242   -2.36631624538505
H          -1.67556615652202   -1.02955279983118   -2.43938056995410
O          -1.10041720475641   -0.07757029679549    2.55406507163818
H          -0.81915012360764   -1.46169228139935    1.76019000184501
H          -0.29439853990005    0.47002396182062    2.58874092190783
H          -1.55281501917623    0.19490597942628    1.73984831652566
O           2.13500893359105   -1.14174795833213    1.54432637570968
H           1.74498816554472   -1.84770750726162    2.06530351547479
H           1.70491469602262   -1.20684343348441    0.66155511114250
H           1.69076706279509    0.40432461656915    1.93110007965300
N           0.58920633424495    0.82222738320643   -2.29112948211594
H           0.45271684760699    1.58539376668288   -1.57050013026328
H           0.83286930677876   -0.03725698226505   -1.70991164244372
H          -0.34825233468390    0.56926130696601   -2.71056986306227
H           1.28769685354373    1.04251451153150   -2.99163459725508
