    26
        -50.46954173  Gyration_radius:  2.39878772971 Dipole_moment: 4.987
 S          -0.32685889147614   -1.13319901492457    1.06858892905993
O           0.98611915207115   -0.82477761754474    0.49731719732693
O          -0.43679864679366   -0.36225165279943    2.42087217942721
O          -1.39339087428663   -0.57236725882260    0.21258346589905
O          -0.51428183699308   -2.54025492988782    1.29171499565847
O           0.26927784641151    2.80290799980476   -0.06153503934934
H           0.22027912480907    3.75502077062562   -0.15668616429393
O           1.23378255919348    0.70870354887613   -1.65347741564354
H           1.32266966902607    0.14706395771022   -0.85438370872740
H           0.90895641746922    1.55556959060986   -1.30969204911339
O           0.57705315435714   -3.20877314620410   -1.01427891697717
H           0.11375500568257   -3.12754969378750   -0.14831322121096
H           1.48585234519840   -2.96440642676510   -0.81931412396437
O           1.46665812648928    1.33794795923262    1.94907854224365
H           1.15286217964804    1.99619814255591    1.30175485002655
H           0.26183761015831    0.34880406908188    2.39137775570366
H           1.76921895027566    0.58649878025246    1.41457378455170
O          -1.92922362221154    1.85292062631218    1.04341456178312
H          -1.85180705988046    0.93110056047239    0.70758016247677
H          -1.89214653286256    1.77487253252171    1.99964500069997
H          -0.60771656132178    2.50921908914534    0.29487180202528
N          -0.57851154369073   -1.11867354299104   -2.16450132037295
H           0.14313909604855   -0.34840926462756   -2.24519130282387
H          -1.17996018736556   -1.20102797143394   -2.97603769604108
H          -0.09266165973649   -2.02547900361090   -1.91896582246847
H          -1.10810383022116   -0.87965810380240   -1.27099642589477
