    26
        -50.46954171  Gyration_radius:  2.39877071556 Dipole_moment: 4.985
 S           0.37114947242205    1.38725923564781   -0.68542930726552
O           0.77977558797609    2.04514980138933   -1.89571765302727
O           1.30795334373771    0.34029557632827   -0.27110137656850
O           0.28821665486496    2.42251023321533    0.47927339613203
O          -0.99095358986211    0.82611385063634   -0.80575376694703
O          -0.82256900234232   -0.93098302170635    2.52781911452918
H          -1.24464485397938   -1.26530920827015    3.32024829795953
O           1.49330835994538   -0.20956853328301   -3.06333324737462
H           2.26254000195476   -0.41296705001504   -2.52427735370204
H           1.24098578404092    0.70296488866948   -2.78999547334306
O           0.47167335204048   -2.10294673744743    0.33604173443398
H           0.94177628699777   -1.25890848283510    0.16712095619595
H          -0.06054816384219   -1.92075440502544    1.12622700986208
O          -2.19457624137887    1.07708971991134    1.50676677771648
H          -1.42058337365473   -0.22939966743163    2.16379489239589
H          -1.91577700289486    1.94416666447882    1.81061676130729
H          -1.85542591553580    1.00680967956624    0.58557395611395
O           1.25707436134751    0.87368434351384    2.32293750547729
H           0.64367554421442    1.95857860904363    1.28732668948079
H           0.58241954105847    0.21585559679303    2.57356190409662
H           1.69006500490331    0.50105764085405    1.53836332692730
N          -0.58849734287146   -1.43207061669707   -1.96848960988659
H          -0.95334215298042   -0.51651981243609   -1.56284135141149
H          -0.24626529970395   -1.96623187428996   -1.12108271973832
H          -1.28112794882601   -1.93208308454409   -2.51380240287990
H           0.24369756236285   -1.12379333605968   -2.54384804048612
