    26
        -50.45846889  Gyration_radius:  2.48610294371 Dipole_moment: 6.170
 S           0.65735257641490    0.32921872478721   -2.00777609865797
O           0.05479416330392    0.34430754254918   -3.30408209564568
O           0.47408361152568   -1.16747447869062   -1.50814094039564
O           2.05493194917585    0.67556257293874   -1.89428313574078
O          -0.16136753663464    1.13005990374729   -1.04681813700061
O          -0.57084938435044   -0.52313064520234    2.24827143607379
H          -0.54699427003678   -0.55437300018494    3.20567817807342
O           2.90768241106690    0.83316107847178    0.54235954817739
H           3.85759491407191    0.95184021336662    0.49801877557974
H           2.59443039069795    0.83726871091253   -0.40403232607650
O          -2.92997750656822   -0.73021657901842    0.95921617501729
H          -3.38680770865994    0.03318337154139    1.31788318016297
H          -2.06127507652739   -0.76456302320895    1.41928948019494
O           0.45589213792244    1.70921931701290    1.44934630337116
H           0.17008259116232    1.65577539610626    0.51131921495963
H          -0.21189157622484    0.38086178955684    1.98246231183145
H           1.41668003768135    1.59020148384071    1.39578444869993
O           1.57383564275157   -1.51811744953697    0.79908833198613
H           2.16345968385891   -0.74050393543583    0.84295873673613
H           0.81136794537148   -1.31963254478935    1.36995839771291
H           0.96619283762889   -1.35048094236420   -0.65128208667397
N          -2.10650784173291   -0.37463230786566   -1.55929601738660
H          -2.75605881196780   -0.11297592151313   -2.29344761305750
H          -1.48264043131553   -1.12552822737892   -1.87294250178684
H          -1.37682349627268    0.42894123305712   -1.35404938211323
H          -2.56718727232592   -0.61797230263204   -0.64548421403974
