    26
        -50.46584235  Gyration_radius:  2.39849772046 Dipole_moment: 4.269
 S           0.52120748160869    0.22351439294415   -1.78990077562114
O           0.02000638387016   -0.30647283190690   -3.03886890685776
O           1.50346921205263    1.27610653157319   -1.85821777547093
O          -0.77680133059011    0.80470890933339   -1.09811408662866
O           0.97009716199591   -0.87470350100241   -0.90277605525037
O          -0.81416452400440   -0.32603477715386    2.28994065352076
H          -0.94294799819443   -0.59901427614089    3.19894532854924
O           2.33238542745825    1.88614933346920    0.53922696264453
H           2.08919359723135    1.62523365877456   -0.38710080964010
H           2.94165376459587    2.62043155424791    0.44735288413350
O          -2.59133860038062   -0.80066872273862    0.23224150771001
H          -2.02543529701265   -0.73628413419508    1.02586113228707
H          -2.46089597575122    0.04326834239360   -0.22007717399723
O          -0.31172342660322    2.10702079625272    1.06665523785579
H          -0.55202254773466    1.38333349911805    1.67000726990753
H           0.66447083159359    2.14730876449381    1.04428414673615
H          -0.56794439974389    1.39583625267401   -0.30897859565820
O           1.69074754664634   -0.60915248159358    1.61415725883463
H           0.14346224800997   -0.51311572929503    2.07190848932292
H           1.52916551562315   -0.83524795328541    0.67350031086197
H           2.13186850469117    0.25002330391810    1.56328805601290
N          -1.13821274850605   -2.08210764426585   -1.57405594761936
H          -0.18693218283766   -1.88741287876479   -1.12737428371539
H          -1.01202129583369   -1.44418279771089   -2.40476911687369
H          -1.29662699653070   -3.05089151547494   -1.82848592634866
H          -1.86066035186013   -1.69764609546679   -0.89864978469104
