    26
        -50.46699858  Gyration_radius:  2.43469276083 Dipole_moment: 4.887
 S           0.23931223452454   -1.53025046938738    0.26133195464533
O           1.29619895517697   -2.45632159046906    0.56168316201520
O           0.33449485324825   -0.30334921513558    1.05087809279028
O           0.17569484432755   -1.18952292423732   -1.17522893321338
O          -1.13369952480721   -2.18701718614333    0.61880389718768
O          -2.25820610958775    1.81469088954821    0.03238157278702
H          -2.97445798805116    2.44369346645556    0.13069988077862
O           3.40055528347345   -0.92147344013843    0.14221222765019
H           4.12670646118451   -1.52518485901755   -0.02541616935213
H           2.63839249190952   -1.48898483241332    0.40334946884807
O           0.50436840826153    2.22135597425064    0.22993863595617
H           0.52590557501100    1.42304981319507    0.79350631515160
H          -0.43290465611285    2.30149610577334   -0.01156543509302
O          -2.42276518553213   -0.70882671537810   -1.09730258303025
H          -1.55083863309316   -0.81566623437710   -1.51337439302760
H          -1.78715496128123   -1.71947230500442    0.03452754996878
H          -2.46103325003241    0.21990941563441   -0.80546857062901
O          -1.97292228079645    0.26344794046674    2.15840119360442
H          -1.05357178974421    0.03166478367328    1.89418944630935
H          -2.20009263515368    1.32232783328674    0.89066162456608
H          -2.44908897522639   -0.56966546540375    2.17805736529169
N           1.91348122709808    0.70030594198765   -1.38049129126136
H           2.24498719494591    1.00916775220444   -2.28746181102117
H           2.67358121434915    0.26500254696927   -0.81186520692459
H           1.44303220406066    1.47606435199328   -0.82330236786983
H           1.18002504182441   -0.07644159818774   -1.44914560608183
