    26
        -50.46699852  Gyration_radius:  2.43487807422 Dipole_moment: 4.891
 S           0.31054866836444    1.31551446479530   -0.80165853084957
O          -0.34448510594217    2.48993545329743   -1.30824835913905
O           1.67309647984737    1.12836294992393   -1.54520791316659
O           0.63285341001124    1.42245729438559    0.63648276930439
O          -0.46626949838126    0.09988093840969   -1.03956431564607
O           1.27153610690260   -2.57146254820901    0.40580953777180
H           1.62841687690941   -3.45802819955520    0.47534780438032
O          -2.67328192187145    2.29868347140617   -0.08410180856276
H          -1.85567977299562    2.34541787857688   -0.63247231990799
H          -3.02865036889516    3.18942807421878   -0.07369933484236
O          -1.36862233009297   -1.69380333308181    0.70584329648347
H          -1.23402519582144   -1.18150968559872   -0.11558207262113
H          -0.50868589107366   -2.12262360380791    0.84739080554700
O           2.70871503937005   -0.20309026661557    0.44197263528825
H           2.30155127976791   -1.08368594759350    0.53014435077614
H           2.22829007091863    0.60582994326795   -0.90855619934805
H           2.09924829918087    0.41127874129541    0.88463041877773
O           1.03585693425618   -1.76583119484567   -2.10471291177327
H           0.39099014470710   -1.06917630215983   -1.84463128844294
H           1.77286280298972   -1.29492089455590   -2.49998204413264
H           1.17481315410216   -2.38493724396476   -0.56281788888839
N          -1.57106952064092    0.70232331475479    1.75871180373544
H          -0.60608587496930    1.03423059006337    1.43580153716076
H          -1.61237728998451   -0.32784544574948    1.49243765603283
H          -1.73160030404059    0.86287235072966    2.74680394398136
H          -2.22794618259938    1.25069923064474    1.15985842801962
