    26
        -50.46699856  Gyration_radius:  2.43485644253 Dipole_moment: 4.890
 S           1.15160893645685    0.70243096249981    0.80543624790492
O           0.77296824952636    1.43277210347317   -0.42207701887680
O           0.53525226593132   -0.62338374538116    0.79529633604349
O           2.57496177325566    0.64134796713642    0.99321829807291
O           0.51103022375448    1.48460748592385    1.99800957377313
O          -2.88467457090394   -0.19925202688645    0.18647887965375
H          -3.82519052147399   -0.35250806914712    0.28751735753592
O           3.24384939465569   -0.97644962196631   -0.98001780372014
H           4.16946986826874   -0.79544722376456   -1.15413470619324
H           3.01772921041684   -0.45349719736184   -0.17582437050192
O          -0.95314753483132   -1.77651136001142   -1.08437943910219
H          -1.75714282371422   -1.26821823998332   -0.88797339715030
H          -0.39867060351453   -1.63911745913532   -0.29129327210802
O          -1.55274032719790    2.19844889275572    0.57518039879253
H          -2.13052928470731    1.43827512019131    0.38190671673822
H          -0.33777049855499    1.84285408942813    1.62658780475204
H          -0.83822086948845    2.15659249797695   -0.08247789401414
O          -1.53123322621405   -0.69582020187885    2.40675709260800
H          -2.46571263492611   -0.46036699551372    1.04590556830324
H          -0.68956006001427   -0.77631309372238    1.90290412372166
H          -1.39058541495402    0.02710978116403    3.02216102794726
N           0.95509978525142   -0.38816764363220   -2.23468128251076
H           0.15451827264595   -1.03435749865513   -1.96059005902270
H           0.95067818655665   -0.14765697919442   -3.21957756444249
H           0.85251017958989    0.46651099715892   -1.59846421337480
H           1.86550201415406   -0.80388253143745   -1.93586841475234
