    26
        -50.45261722  Gyration_radius:  2.43268314372 Dipole_moment: 5.794
 S           0.93440704199069    0.27521581766342   -0.75009651280803
O           0.27226964150173    0.91291912102132   -1.98525527682383
O           2.11636200640839   -0.46704541109215   -1.13122128765288
O           1.19903648252876    1.33353565436631    0.19846838964374
O          -0.08358675220484   -0.66435020635942   -0.18213379588796
O           0.36035472580166    1.49826625684451    2.76061098629585
H           1.03020335425368    1.80230579139299    2.12703631978195
O           3.02610768174748   -1.04364846922753    1.22620440210078
H           3.48298830538228   -1.88275030746107    1.13624403067258
H           2.78478713021361   -0.76109753790318    0.30384117192062
O          -2.67253626034436   -0.26519721484362   -0.44102376245546
H          -3.11525836056300   -0.74473885844485    0.26134816902964
H          -1.71441414587226   -0.46740314679408   -0.35231689170234
O          -1.38485613880191    1.96679974517684    0.79275398767678
H          -0.53643957551470    1.89520842458119    0.32577696702445
H          -2.00779440059215    1.40325762020493    0.31251197499751
H          -0.48189835058374    1.73124600494474    2.31008558585307
O           0.66490701006891   -0.91135804305418    2.16554663597017
H           0.26052025054954   -0.87151651321670    1.19245196675072
H           1.66342242080228   -1.00129860888752    1.95985054300910
H           0.52141760697759    0.08337873758939    2.53544868299318
N          -1.32044747724946   -0.83797207963229   -3.02075780767858
H          -0.31284111820612    0.21653203778999   -2.45387423213555
H          -0.96372154172070   -1.77276004310738   -2.87626524172090
H          -2.13248254597857   -0.70021591839454   -2.42675361444712
H          -1.59050701061934   -0.72731286314031   -3.98848138042355
