    26
        -50.45725973  Gyration_radius:  2.58789468992 Dipole_moment: 6.912
 S           0.40328431057390   -0.51427793997966   -0.79124739494860
O           1.17380204049958   -0.24175545861046    0.45591147618170
O          -1.00764473441294   -0.95104665303889   -0.27701545866074
O           0.26875685116536    0.67138376706301   -1.60319721595545
O           0.94635132640073   -1.66534305971936   -1.47185428271321
O          -0.61341426297272    2.97734720162014    1.29096993812870
H          -0.38281182470072    3.13473420223660    2.20688648524590
O          -1.98980194973871    2.00499000048563   -2.14032034625031
H          -1.16738667472185    1.47681353651104   -2.10336679359061
H          -1.71395476260963    2.92345625471011   -2.16703835056051
O           1.51626754169421   -3.90178945452211   -0.30713568480168
H           1.27377923229573   -3.13784603150397   -0.89589728061718
H           2.45800455981290   -4.03251984188682   -0.43215628769498
O          -2.30176874401731    1.10649494815762    0.36087273776953
H          -2.46043239381213    1.46244809160879   -0.54045034939112
H          -1.55199512000657   -0.11261124830727   -0.00706964376734
H          -1.71858514289885    1.77319256616139    0.78646693971478
O           1.63787747875932    2.34670021118768    0.02080992898596
H           0.23928116056490    2.83849629210493    0.81120287221347
H           1.67560862298687    1.43657022547660    0.36519882753815
H           1.32468065056503    2.20884311065136   -0.88252551225078
N           0.39486241244120   -2.38704435357731    1.51197984484794
H           0.84813996415769   -1.43008887474057    1.18606532625774
H           0.42103704479872   -2.54168313558375    2.51445151534770
H          -0.56177811603943   -2.30169519150067    1.15405254026201
H           0.88784050922070   -3.14376915502106    0.95440618873419
