    26
        -50.45725988  Gyration_radius:  2.5877621274 Dipole_moment: 6.906
 S           0.69092845090647    0.05720042048232   -0.75627789110464
O           1.15955707780482    0.41825530476681    0.69146970532264
O           1.61643916490740    0.71884242758235   -1.64439265618625
O           0.62899554361141   -1.37822800203483   -0.89341503829555
O          -0.66049023912668    0.67796758630112   -0.86387419093937
O          -2.38756364963736   -1.81568315467349    1.38196048077277
H          -3.21721904002472   -1.38929567110350    1.59793947477958
O           1.86102286286900    3.28561963542539   -1.83168313157020
H           1.63987161775580    3.50700398714079   -2.73812402574225
H           1.93143385296287    2.29389632920680   -1.81010818227292
O           1.15844987611798   -3.19633659954369    0.99883394274963
H           1.10184788434421   -2.58724344226922    0.23554615851937
H           0.53343516698715   -3.90217662316257    0.82138401037694
O          -2.04778174127799   -1.56584701149438   -1.24508984130188
H          -1.77421931057439   -0.63206284201953   -1.20433517802874
H          -1.20547690103408   -2.01846440562931   -1.38144585169457
H          -2.31768995387040   -1.80113244863415    0.39631672118355
O           0.04313045934370   -1.14732485368155    2.30939309551747
H           0.53655314966982   -1.96522327063007    2.08176206290676
H           0.70443434906367   -0.21736636573192    1.37039425798663
H          -0.88174198629214   -1.33740107282086    2.03681946677837
N           0.16008364505814    2.84602249915899    0.11116581723281
H           0.75399804537527    2.39106238705373    0.81175373671100
H          -0.46664140005529    3.53098534158013    0.52051752633778
H           0.79012548515716    3.24683454095631   -0.64311522569275
H          -0.35148241002093    1.98009529376970   -0.35339523431920
