    26
        -50.45725954  Gyration_radius:  2.58814843548 Dipole_moment: 6.912
 S           0.31900724106248   -0.92400720229296   -0.30785526918654
O          -0.86823589702691   -0.74829541232436    0.57679874699522
O           0.23044574130552   -2.17671389396887   -1.01917430953883
O           0.15313032791279    0.19206377805495   -1.39080933073892
O           1.55306766338150   -0.71206783996852    0.41003242951952
O           0.37520025994804    2.41718284394292    2.21997210519116
H          -0.40569537906594    2.77911246614842    2.63954273946039
O           3.30548919483905    1.27887617979822    0.04584968476183
H           3.62847795685445    1.46469598267730    0.92993101228063
H           2.78339331303248    0.45478061059561    0.11699082272558
O          -1.88883711213893   -2.99877843750664   -2.25043330821294
H          -0.98802893918291   -2.77880818147436   -1.89112583378327
H          -2.14143177592285   -3.81933560909888   -1.82327613615308
O           0.90972249198697    2.37930026867576   -0.41203568958900
H           1.87429209545766    2.19788352885056   -0.38074964903496
H           0.45850875045852    1.10110733487856   -1.00007934565902
H           0.64576190312263    2.45414476822752    0.53168386767052
O           0.45049082641722   -0.17373066733450    2.82091426823797
H           1.25676787281037   -0.45781281417057    2.37094073511992
H           0.44489093177465    1.48032144898598    2.52650938569583
H          -0.24008209714161   -0.42803392430109    2.18303199115794
N          -2.42186139166282   -0.58148584007343   -1.39363531617666
H          -2.43114548015591   -1.56192770625035   -1.79998584491415
H          -1.88595752533129   -0.66153361421916   -0.42726233060154
H          -1.77370682028339   -0.01413640128869   -1.94915266856081
H          -3.34366416242947   -0.16280166648886   -1.32662274666508
