    26
        -50.45725977  Gyration_radius:  2.58782937093 Dipole_moment: 6.913
 S          -0.89580816623838   -0.46429671326231   -0.18849175013356
O           0.27572956269718   -1.33409618296802    0.37443262390697
O          -1.78435105158984   -1.38677343542812   -0.85376135444331
O          -1.48976358790369    0.29034165122768    0.88902395816728
O          -0.23718544840460    0.42731466637990   -1.18563839340305
O           1.48195291178377    2.61753883430223    1.36500173330228
H           2.14195986964175    3.08658220293599    0.85393773986634
O          -0.72658446419799    0.29877504332095    3.45511485319245
H          -1.13998983622910    0.21862353486525    2.57223898288589
H          -0.87644600675409    1.20360455483602    3.73663129038433
O          -1.14149045415541   -2.76281403511191   -2.94585987405544
H          -1.74676196344117   -2.49017386290219   -3.63785744946419
H          -1.49795306079527   -2.36242732071700   -2.10828093278019
O          -0.79722935795922    2.74922416568349   -0.00196201215045
H           0.62202766604870    2.75369512742135    0.89766162517632
H          -0.54374963800381    2.07017588397684   -0.65235189165828
H          -1.40241021163423    2.26327511747447    0.57317202072788
O           1.54371546715415    0.02500789802004    2.06566068280759
H           0.80991684198809   -0.78515354133012    1.07120101959967
H           1.61113589908319    0.96465090920226    1.78588313648919
H           0.86933094585236    0.03171726848593    2.77942236974544
N           1.02651885985511   -1.49476220075934   -2.20218370521673
H           1.22861580631049   -1.93542612551526   -1.29911702378398
H           0.27734009662258   -2.06902384587763   -2.68742781806745
H           0.53041929973357   -0.55378519948344   -1.89264563633128
H           1.86106002052584   -1.36179439475914   -2.76380419477997
