    26
        -50.45725984  Gyration_radius:  2.58786515585 Dipole_moment: 6.911
 S          -0.86190203322596    0.40215766401011    0.38463599376147
O          -2.03586798679362    0.43849858268293    1.22342561226312
O          -0.64186743636914    1.58431651280102   -0.41370149117984
O           0.34789419468891    0.20145505422968    1.35514822766612
O          -0.86315082814743   -0.83259734621514   -0.45122927085024
O           2.18727306496749    0.09149659239764   -2.47300045841298
H           2.44440743522468   -0.73398462326437   -2.88435214798875
O          -2.86767348312338   -1.55854353413498    2.63884465524347
H          -3.74391041985857   -1.76865268493286    2.31077677736840
H          -2.62519910391731   -0.69300059949768    2.21337841898313
O           1.49642715706614    3.19391451702490   -0.34568137053269
H           1.60891387331567    3.46584130620049   -1.25879194119999
H           0.63442657395428    2.73337976589765   -0.30521525585507
O          -0.44082648566893    0.33962638699900   -2.80777695457288
H          -0.67346592174644   -0.30028884903980   -2.11152053642990
H          -0.61812114962645    1.18447587523650   -2.37429366882632
H           1.23079891940884    0.22005171274346   -2.68534570011885
O           2.46691440990789    0.74361429208858    0.11782372939597
H           1.22966344325452    0.41834488717790    0.85760517322250
H           2.42198584788543    0.43336090635257   -0.81356913321788
H           2.35241108006300    1.71688084014279    0.05573199751790
N          -0.59702993871069   -2.30687297789324    1.56866033719342
H          -1.52740289264887   -2.22515934108266    2.07290991948531
H           0.06980651515960   -1.67977598358098    2.02978488651583
H          -0.25338548465085   -3.25953807688987    1.50626378915807
H          -0.74111934042719   -1.80900087948210    0.58948841141456
