    26
        -50.45725997  Gyration_radius:  2.58727531679 Dipole_moment: 6.911
 S           0.93585262869205    0.38762566923146    0.16877225271990
O           2.22561881095319    0.47617703887148    0.81047321446254
O           0.67228202217121    1.40407762249842   -0.82148044063138
O           0.72652262631116   -0.98236142952179   -0.38136117003614
O          -0.11904534919174    0.49979270736678    1.31780941830974
O          -2.53018382590129   -0.19361610178359   -2.11120117184785
H          -2.89812855574851   -1.05757122278246   -2.29814516312011
O          -1.32215577965503    3.18957895806597   -0.79611168758379
H          -1.55627561439641    3.28677458582410   -1.72136278386071
H          -0.49580107365388    2.66642971781145   -0.78002413531481
O           3.13117369451757   -1.27216809353760    2.48512867651952
H           3.93096700038059   -1.62581910285518    2.09168954030966
H           2.88339875562262   -0.48884071164979    1.92467833755150
O           0.02479875358901   -0.26490955223826   -2.85082205601466
H           0.32111233021341    0.62857353661788   -2.63428008325275
H           0.31993257920333   -0.77248010930694   -2.07382509849367
H          -1.61189681755440   -0.19965257173374   -2.47622631980447
O          -2.36497051112903    0.98176186203283    0.29850516364647
H          -2.48385394462889    0.49080715075299   -0.54451537943962
H          -1.05142795265344    0.69514757431093    0.91221600011359
H          -2.19964922948532    1.90842878720936    0.01884356505000
N           0.67864468313051   -1.99685285026295    1.91938148623511
H           0.26835782896701   -2.90604461286563    2.10533328428908
H           1.67918255156791   -1.90640287468534    2.26205712895286
H           0.70215128896817   -1.71776913531691    0.84748483669909
H           0.13339308971458   -1.23068683207390    2.32698261453860
