    26
        -50.46584237  Gyration_radius:  2.3984679358 Dipole_moment: 4.268
 S           1.23703999645317    0.24317091797147   -1.39178520760791
O           1.08730878928778   -0.99293472934494   -0.58892988068020
O           1.20763320265296   -0.06363035967168   -2.80482846153493
O          -0.10899689897541    1.04272517260735   -1.16794442161772
O           2.32638487408863    1.05313021757629   -0.90736369966830
O          -1.72236358900945   -0.31535569818718    1.71746399140485
H          -2.25574248572798   -0.61920513701868    2.45269120228552
O           2.19374858881466    1.27139557963149    1.68905425751975
H           2.30968132536513    1.14525876686210    0.71137860805306
H           2.90334170930865    1.85710568296257    1.95796071839169
O          -2.55440447382142   -0.21952537004075   -0.91390390979765
H          -2.10334721473669    0.60517384822978   -1.13821884838647
H          -2.36302979353003   -0.34572939647050    0.03549700756369
O          -0.35360287481304    2.03241021027032    1.18953486284577
H           0.53739553760996    1.85603008124072    1.55013763921315
H          -0.14301419450823    1.50815435806238   -0.27447186355643
H          -0.93999233094091    1.33455757255882    1.52831481570125
O           0.75020118619411   -1.09526310440581    2.01925573502593
H           0.95103778662891   -1.20486643048011    1.06551327441575
H           1.31404907135053   -0.35429399934380    2.28085597933118
H          -0.80760891065947   -0.69368144844114    1.85682140743036
N          -0.73385147185798   -1.64801544487658   -2.20310130331387
H          -1.59227521805195   -1.16744281912829   -1.80585367283244
H          -0.93683322533989   -2.53558597649911   -2.64968656930322
H          -0.17256084969984   -0.99141430110383   -2.80842954222017
H          -0.03019854610018   -1.70216819299283   -1.39996212867705
