    26
        -50.46112301  Gyration_radius:  2.68916848151 Dipole_moment: 4.738
 S          -0.38607870759987    0.71807628982728   -0.11230593032242
O          -0.19747010669733    0.31125128830476   -1.62711642724529
O          -1.79239428127779    0.76887229614290    0.17882399720407
O           0.30015919809915   -0.33905800072703    0.66109090252632
O           0.30743399413464    1.98511473310227    0.02099333306386
O          -3.11673333179124   -2.87033213966880   -0.59345589369224
H          -3.17022156770294   -3.72342381882876   -0.15959789933262
O           2.22583199260044    1.48109633340936   -1.93681977892002
H           1.36620421872994    1.03547582235048   -2.05185413406013
H           1.98938942417837    2.36206657658861   -1.62781657005438
O           2.17048557973783    2.54806437504164    1.78728102539932
H           1.77026510304143    2.59049015109608    2.65698505905072
H           1.42096020519373    2.49716204867154    1.14813404336302
O          -3.36086130415296   -1.00979675348691    1.30021814170893
H          -2.71842032935013   -0.35496484951108    0.94202279352597
H          -4.20124266285711   -0.54807042800763    1.31970520630590
H          -3.27549064823754   -2.19461918659427    0.10722862651768
O          -0.59603523899084   -2.14411166753501   -1.11800951614671
H          -0.32730322893674   -1.86951889350168   -0.22811459749070
H          -1.53823525559614   -2.42682021530149   -1.04964619232164
H          -0.41633765120040   -0.67089128862182   -1.62475022879016
N           2.75057818629974    0.34905502825908    0.40714001487429
H           2.81485132637050    1.15395913240643    1.07062293336791
H           2.73769081678150    0.74599786851293   -0.57281942691167
H           3.48391294069567   -0.33759411334488    0.54302510904573
H           1.75906131850316   -0.05748057860680    0.55903538933398
