    26
        -50.45854330  Gyration_radius:  2.4827141191 Dipole_moment: 7.763
 S           1.49548514765830   -0.40309656312258   -0.11302100840711
O           2.45383014231587    0.83940472386323   -0.29447327262384
O           0.72781647884821   -0.48846452602492   -1.36561081173437
O           2.30452354213015   -1.54677794850404    0.14661514377506
O           0.59515476013551   -0.03800835921356    0.99002717856269
O          -3.04603560951093   -0.57090804323774   -0.66025449748602
H          -3.79954388162818   -0.92292385786589   -1.13636966375281
O           1.90505330181011    1.86564481569120    2.47661593446008
H           1.46703747130974    1.05785995472230    2.16548557211677
H           2.83596386947616    1.65129251831616    2.55145665024127
O           0.20769238005620   -2.69594305979040    1.46024611316843
H           0.09282479031343   -1.76410466779994    1.68927342437080
H           1.09712003077968   -2.72625046128290    1.07924317061597
O           0.20501182945786    2.40638178723402    0.23051724497170
H           0.48175284701061    2.97328735800242    0.95810796369012
H           1.88448162535284    1.62149698400144   -0.24781134098856
H           0.18572507942592    1.50192036756381    0.62420310369502
O          -1.16922936306705   -2.36130378094697   -0.81907986003999
H          -0.83771857521012   -2.69613056739277    0.04090535356248
H          -2.37603122502945   -1.31645891676374   -0.62222893530894
H          -0.43203196031950   -1.83306167510912   -1.16880957331539
N          -1.27607472325849    1.11492565089815   -1.61578065055491
H          -2.09460019265864    0.54400947510391   -1.24098906332897
H          -0.42336193044307    0.45156845617634   -1.58569084982562
H          -1.44498863596090    1.44394996620825   -2.56012359088366
H          -1.03985717899628    1.89169035927358   -0.98245372497742
