    26
        -50.46492029  Gyration_radius:  2.39772700679 Dipole_moment: 3.485
 S          -1.18496432063756   -0.30827871129510   -0.79749948642786
O          -1.50688371941058   -0.37448025769751    0.62165642538380
O          -1.72604145875359    1.04370769493892   -1.34681250337070
O           0.26895966058096   -0.30417942209410   -1.01062987397360
O          -1.77366431157025   -1.40158790732756   -1.55444808065269
O           1.15034677347670    2.49560869744315    1.11742015148372
H           1.62536534958648    3.28966892652060    1.36651627607179
O           1.83785885937694   -0.31141639748467    1.15468098702013
H           1.72420146048931    0.58149763164923    1.50349414390581
H           1.37505267291988   -0.28991022437123    0.29452937541209
O           0.06085795962644   -2.22812354421718    1.61314989694199
H          -0.66876412015991   -1.58984942035848    1.44495216965924
H           0.85252030468873   -1.64242672250630    1.67126625544328
O           1.00627457313822    2.18241839900877   -1.52388576664926
H           0.81734842145018    1.22222313624272   -1.45198799207284
H           0.21975472111769    2.56444334780935   -1.92065407686131
H           1.21587600404943    2.42700431032013    0.13403053705578
O          -1.56535397041722    2.25642766479156    0.91433036552986
H          -1.74043992739190    1.65801529421313   -0.54984435397472
H          -1.70701676569591    1.35164631514546    1.23860483870508
H          -0.62280188074818    2.44469205902577    1.09475132166550
N           0.07963231835397   -3.05254671839584   -0.81947097664813
H           0.91579476747838   -2.66889978165401   -1.25550874130000
H          -0.01629214567493   -4.04685001370225   -1.00181484171202
H           0.11430396515177   -2.81258679725096    0.26515785283692
H          -0.75192519099498   -2.48621756871791   -1.20198391345295
