    26
        -50.45997511  Gyration_radius:  2.56969620288 Dipole_moment: 7.051
 S          -0.93761964694981    0.34615174922180   -0.29792452126584
O           0.52750716060293   -0.11132707498488   -0.57781817272036
O          -0.93586206922806    1.30888411538876    0.77825630576692
O          -1.36561467193404    0.91331540264511   -1.58333847178793
O          -1.69990973864693   -0.85915069952591    0.02396393253481
O           2.68752545771058    1.39959080834162    2.26077403014241
H           3.56081616633454    1.44728077454110    1.86899004564815
O          -0.99911705498046   -0.75176647479078    2.61338761474850
H          -1.40503834724104   -1.00489199402264    1.76559019423017
H          -1.06793946163202    0.20960063823662    2.61738643538960
O          -1.71710681138659   -2.66019558908990   -1.83761395116215
H          -2.64152185535380   -2.85905879162343   -1.99728522851212
H          -1.70829383579107   -2.06061864941517   -1.04347152967303
O           1.09490281983388    2.97412461705350    0.78401147570504
H           2.12271523086417    2.01723070368582    1.74277099390302
H           0.32943811253472    2.36061470570354    0.70720032681597
H           0.75188187540431    3.75938706562988    1.21475731473003
O           1.46689531775298   -0.89251126220813    1.60440762954908
H           0.64372593568438   -0.96653567916462    2.14083744576785
H           0.95156786762658   -0.45939576987032    0.31224680021627
H           1.94909680306328   -0.10637170561974    1.95205375687650
N          -0.30428617297610   -0.81441578993776   -3.06064061316433
H          -0.26821963416475   -0.69039673263876   -4.06672559866759
H          -0.85049204247560   -1.67133927490030   -2.76178816421044
H           0.62485127005446   -0.85543385506248   -2.64279025352330
H          -0.80990267459131    0.02722874239414   -2.51723780735791
