    26
        -50.46492027  Gyration_radius:  2.39774598358 Dipole_moment: 3.484
 S           1.15852259928658    0.24935976688529   -0.85504199884560
O           1.54390906780353    0.22167950640738   -2.25704759490486
O           2.08057854578765    1.24314337980879   -0.09051820993732
O          -0.21220050177996    0.76705387427160   -0.74345878853277
O           1.28041321681380   -1.05422887504053   -0.21639228470971
O          -0.62045740508145    0.53454414119064    2.85145746417270
H          -0.90839499900874    0.81950274538141    3.71986844178530
O          -1.98261318198189   -0.70061182700131    0.62077902861555
H          -1.42872227709428   -0.07156381944175    0.11868927638490
H          -1.69402054299541   -0.58788474115362    1.53502426234982
O          -0.80586870949768   -2.42776511530717   -1.01466040538973
H           0.07412311547752   -2.14466573759896   -0.67775383635016
H          -1.42843328934437   -2.01007043582361   -0.37357691286495
O          -0.24152321553648    2.57671738122651    1.18377437727233
H           0.65718287861216    2.91471545132090    1.17761533796157
H          -0.30707877025288    2.00654028119128    0.38789899474172
H          -0.58221416830049    1.34569214692561    2.28879145366339
O           1.95414784658184   -0.03863148612109    2.13425357361251
H           1.07314163550574    0.11866227512484    2.52864452257355
H           1.82657218171326   -0.78376183085348    1.52407391257595
H           2.15060927829299    0.86543576965445    0.83968420355760
N          -0.73611491178988   -0.77099672851952   -2.97624943118530
H          -1.39203816688457   -0.02415144348568   -2.75621529933474
H          -0.86904027864562   -1.12122207300351   -3.92004018800913
H           0.24979440956917   -0.36577329592162   -2.82739773941014
H          -0.84027436725850   -1.56171929015176   -2.20220216979399
