    26
        -50.46492026  Gyration_radius:  2.39773361167 Dipole_moment: 3.485
 S           0.00372620257578   -1.39584989830979    0.43258120985300
O          -0.36947166988924   -1.30984651552178   -0.97287479489255
O           0.93033257964350   -2.48481989974625    0.69791639367542
O           0.59651721618402   -0.13538093097909    0.90071560015718
O          -1.29651798445150   -1.61800466506925    1.25862912351881
O          -2.05419939751166    2.13901810599769   -0.07069798656745
H          -2.64335663841895    2.88849758558599    0.02632311321572
O           1.67332842756164   -0.18834733296918   -2.17531430729928
H           1.43328290260305    0.72949333465156   -1.90488975589460
H           0.86013417744192   -0.69779521482453   -1.95801120089213
O           0.72241917048271    1.89489414502431   -0.83484744383416
H          -0.20009210249110    2.16937338632813   -0.90943657373476
H           0.71636795987845    1.23990988163800   -0.10995954768995
O          -1.24844025685819    1.16743757514065    2.27492579081763
H          -1.80257031934426    0.46194544873300    2.61723857550222
H          -0.47209802349755    0.71569885515362    1.87990737322863
H          -1.75237919936605    1.90041546989486    0.83926954094643
O          -2.82178272677428   -0.45659436996131   -0.45429975282159
H          -2.02905256895242   -1.21453735786355    0.69887630074869
H          -2.67401766331282    0.50810576150444   -0.39177489433960
H          -2.13274885436867   -0.77727515259974   -1.05945614219466
N           2.95526336959244   -1.11395156152671   -0.15116760753897
H           2.51458206571055   -0.70201852810770   -1.08467917475602
H           3.02275442058624   -0.35811588011209    0.52752358662382
H           2.21508807614581   -1.79840470972696    0.22591876056684
H           3.85293081679485   -1.56384754232267   -0.30241616638266
