    26
        -50.46492028  Gyration_radius:  2.39770600354 Dipole_moment: 3.480
 S          -0.74665540820807   -0.77612343479568   -0.98747918725018
O          -0.69071330113193   -1.15649335734958   -2.38998998448920
O          -1.56775830535480   -1.83923427289616   -0.20141090104328
O           0.61328689820664   -0.79042244837528   -0.43093014127563
O          -1.38271238211723    0.51864737548266   -0.78481479490696
O          -0.14276205379381    0.27879995004256    2.94983859158003
H          -0.06582625010525    0.28213292812927    3.90497888591552
O           1.45922906372117    1.41243507918646    0.82678057279544
H           1.26041378361271    0.55095226355541    0.41100811824840
H           0.95024648701745    1.39914895109238    1.64688725779587
O           0.42206254849979    2.30175129963681   -1.44833628295005
H          -0.41509179616399    1.82378772208759   -1.25156351654263
H           0.91055135019221    2.24511905157148   -0.59323792408540
O          -2.44315622884121   -0.16597583299857    1.54280747800027
H          -2.33510722889870    0.44188653775733    0.79273332597093
H          -2.00624450069539   -1.32558285640980    0.54473050665410
H          -1.70985088836740    0.05203086196023    2.15218601501572
O           0.52965957073133   -2.06728030646423    1.88260890673146
H           0.68092922278032   -1.67865399417171    0.99439580270646
H           0.19785786315529   -0.59677833526212    2.64431416667759
H          -0.20822384481706   -2.67131800398653    1.77028677087204
N           1.36635557975159    0.35231760552227   -2.82885970974923
H           0.51884692025404   -0.31040275872678   -2.79738646773558
H           2.09453099676894   -0.08286803293551   -2.26594135607019
H           1.68093196683934    0.52913654839761   -3.77800125428932
H           1.02919993695284    1.27298748993463   -2.30560487857927
