    26
        -50.46492026  Gyration_radius:  2.39774323091 Dipole_moment: 3.481
 S          -0.48194182179030    1.36998534586007   -0.16215516509898
O           0.03253873849468    0.54700182437674    0.94117224904567
O          -2.03521743133438    1.31677520098837   -0.07936283517159
O          -0.04011878639701    2.74311958370513    0.02252312802575
O          -0.08470729723329    0.82419892228464   -1.45304999763365
O          -1.28991304705295   -2.67025502742457   -0.08061235421685
H          -1.69393624707237   -3.53027664808199    0.04346660879534
O           2.45847399463784    0.23106491120913   -1.21448151765004
H           2.29962700854549   -0.61924428423439   -0.74036696300341
H           1.56332415259148    0.46168259186234   -1.55143676701980
O           1.39318410924316   -1.66535792014264    0.30577347790779
H           0.90159122738811   -0.89990017669216    0.66209949810058
H           0.70261057440279   -2.25369647598034   -0.02406261050723
O          -1.95745874549167   -0.94569493099220    1.83651362018219
H          -1.53096317849671   -2.13052713015770    0.71097290009524
H          -1.19210777615997   -0.36099040361863    1.64897193664606
H          -2.73309980302081   -0.41718189566925    1.63402791185745
O          -2.25247787825608   -0.67850039977656   -1.68571689915363
H          -2.29960276381519    0.56145142858843   -0.68958066350512
H          -1.43165266546228   -0.29347849943322   -2.03468642766977
H          -1.97079108601319   -1.48574110474923   -1.21075042741475
N           2.36088226276170    2.00159654484608    0.64381123241242
H           2.53064286449325    1.25118865633641   -0.15826353570524
H           3.10860352335356    2.68533664501278    0.71078110727246
H           1.41480092061248    2.45495446486325    0.40332737689140
H           2.22770916108456    1.50248875701492    1.52108513651921
