    26
        -50.45854326  Gyration_radius:  2.48279152546 Dipole_moment: 7.762
 S           0.42394814934126    0.35694221907888   -1.45103080251919
O          -0.54017603960658    1.28207865415948   -0.83451244879844
O          -0.39750339244424   -0.43546664287857   -2.54318081739595
O           1.50991897545792    1.00706596916865   -2.10525912735694
O           0.83169079715826   -0.65468896240091   -0.46567381067773
O          -0.56254774377603    0.89624012131169    2.98635113134279
H          -0.78381367423185    1.48428131990289    3.70998905397771
O           2.90525468108842    0.97041044157982    0.23865433381322
H           2.78971978621867    1.24371824940585   -0.68284159803313
H           2.42320973711130    0.13422669628277    0.28735976060297
O           0.81920394681041   -3.07268723060136   -1.77046883687874
H           1.16318409467429   -2.97621514874074   -2.65957529976824
H           1.07291786263941   -2.26611662471607   -1.29478083292298
O           0.82292760164984    2.29642367190148    1.29129012620794
H           0.07199036518820    1.40953382526742    2.40318278575336
H           1.72038325496250    1.95038384946615    1.10035820480669
H           0.32880619054202    2.14211705280180    0.46858776730122
O          -1.42864924743005   -1.91665093661239   -0.41428917964138
H          -0.98156558406364   -1.03254702169438   -2.05292975683949
H          -1.24465708224623   -2.83028295643389   -0.65671290680237
H          -0.53662407743898   -1.52499301890317   -0.25826139886587
N          -2.11554214438426    0.30149000045612    0.95600058341559
H          -1.58687913298109    0.46994346135025    1.86619158162533
H          -3.04433952527075    0.70828994641390    0.97697928302156
H          -1.51289539133517    0.75710690366103    0.18319078186386
H          -2.14796240763586   -0.70060384922248    0.72138141276499
