    26
        -50.46294010  Gyration_radius:  2.65607557627 Dipole_moment: 5.942
 S          -0.13700416774178    0.26958902260676    0.58305855013067
O           0.27687844189459    0.00665658866166    1.93615975586871
O          -0.30641024717249    1.68545734373864    0.25555010834057
O           0.75319666706875   -0.36405470894265   -0.41171492250630
O          -1.54715953209545   -0.33782882252897    0.32722485928526
O           1.08577689587756    2.43876943081846   -3.36008152264238
H           0.96953120609148    3.37658384084721   -3.52015733001952
O           1.12571796941855   -2.61477920533876    0.99986654490574
H           1.36413074070712   -2.25028846015919    1.85687025303984
H           1.11342336233864   -1.85109161552353    0.39421756109761
O          -1.14940754409762   -1.45504847376892    3.65717495947979
H          -0.55905240562866   -0.87924530899667    3.12985633035043
H          -1.76133539208083   -0.86931873242784    4.10496022616315
O          -1.53327147847181   -2.67476846724416    1.28546211794403
H          -1.56758637002864   -2.45076019030099    2.23749345541838
H          -1.60374927890433   -1.30534732997837    0.68583148963360
H          -0.59080507844399   -2.90436995133711    1.12089239785906
O           2.07356793865260    2.08437740656680   -0.93189799680682
H           1.26361406342619    2.15798886162152   -0.39111774053390
H           2.32726191377820    1.15934079210005   -0.84674087988260
H           1.61443239061322    2.36534290295035   -2.52384048692920
N          -0.67546954906600    0.87979118938773   -2.16426781133023
H          -1.52511484142166    0.50091189519634   -2.56912305035783
H          -0.85076964279250    1.42900547652015   -1.27887860097151
H          -0.05647399281574    0.12799401813770   -1.74993797459546
H          -0.10392207911197    1.47509249740901   -2.82686030294189
