    26
        -50.46507275  Gyration_radius:  2.55404978815 Dipole_moment: 4.267
 S          -0.34929024323580    0.53929501290978    0.75726836048650
O          -1.65218455680948    1.15909050634673    0.96891019480521
O           0.65914849436010    1.49515043114154    0.32160834793248
O           0.10663201874733   -0.08171118024514    2.10213955166660
O          -0.47270483355314   -0.56347132601709   -0.20598509176834
O           3.42646190961400   -1.40680236016911    0.71854296948527
H           4.05549382717001   -2.02481566383875    1.09362944957933
O          -2.66326459918281   -1.14273276977318   -1.55966039848740
H          -3.20349319391551   -1.70833634354099   -1.00584279872586
H          -1.80302508302049   -1.04708922383216   -1.08787491421014
O           0.03346306938770    1.53091651734382   -2.21244468842682
H           0.38146107934268    1.62915732993979   -1.29345085949405
H           0.24660956732036    0.62599552152751   -2.45640222217787
O           2.50910940528050    0.71775788603452    2.07023923303629
H           2.20354544044132    1.32133922660126    1.37433676390490
H           1.07385803717386    0.21257213266899    2.23032322561109
H           2.97937344545057   -0.00800620239539    1.59960091480256
O           0.98569348543385   -2.50639960821505    0.85632281154900
H           2.56511920483640   -1.88162066012143    0.67026692370508
H           0.72254956155981   -2.38073271399201    1.77214729725064
H           0.44657500635528   -1.86004003941393    0.35462641833871
N          -2.48508922921341    1.50322737171694   -1.43577023932295
H          -2.25095330053263    1.47838193344710   -0.38535052328269
H          -3.15260669608464    2.22694150543404   -1.67687850368450
H          -1.54329103320856    1.63314996092185   -1.90871516594390
H          -2.81919079373413    0.53878276547803   -1.66158705665843
