    26
        -50.46294016  Gyration_radius:  2.65580025194 Dipole_moment: 5.946
 S          -0.12982358709197    0.12323746080577   -0.63259206875173
O          -1.30130584453162    0.01088151385469   -1.46102672073824
O           0.71768999643598    1.28091211838274   -0.91883085061308
O          -0.45417925135826    0.09337815286247    0.80880115959886
O           0.81379173002514   -1.09122081262962   -0.87249386963123
O           2.04542295799996    2.87874158060159    2.43734819206690
H           2.57825360464512    3.63895391945371    2.19894581093984
O          -1.79083239892500   -2.08525286688789   -3.04200480809491
H          -1.70466027622609   -1.25563509489126   -2.52969086610332
H          -1.37428713060745   -1.91878145630646   -3.88864453120651
O          -2.38471388121612   -1.75499182295173    0.58191137912669
H          -1.74080714889993   -1.06177452737562    0.81659025302664
H          -2.90596773698580   -1.37995569611073   -0.13346967122393
O          -0.62939620859811   -3.16383956776953   -0.86302289106836
H          -1.05973080358047   -3.05490383188923   -1.73516948553717
H           0.28334174076349   -1.97820493048032   -0.86598358193653
H          -1.31121309442824   -2.87559167388186   -0.21477833632653
O          -0.19049523859196    2.90319940527770    1.02415040401058
H          -0.77612682728556    2.22833925454196    1.38310849936414
H           1.15637122206616    3.02393402305226    2.02177324717993
H           0.12062629542879    2.52155379604123    0.18062173752692
N           2.05710197798338    0.56756392619968    1.16450851490747
H           2.24315667288384    1.41367548756533    1.77253317745675
H           1.08366622642027    0.20294519117540    1.36402315431072
H           1.89145479554351    0.89133838951319    0.17274373264486
H           2.76266222812327   -0.15850193814838    1.23064842907540
