    26
        -50.46294017  Gyration_radius:  2.65591762546 Dipole_moment: 5.940
 S          -0.35105830414048    0.33001136426879    0.44696574795351
O           0.42662600931794   -0.82825301258822   -0.04022114333556
O          -1.70818324270378    0.27074366395551   -0.09636714402090
O          -0.27729892203267    0.47845477873965    1.87659529304558
O           0.27094485138440    1.57346390047880   -0.25289840054800
O          -1.92733609032695   -2.43202115479191   -2.96402461786877
H          -2.83442614056637   -2.44406503895329   -3.27345523662180
O           0.91116810326891    2.54196577972483    3.08535387576673
H           0.26169711600569    3.23938624293020    3.18424445791184
H           0.42201365905235    1.75985719333087    2.75780771932265
O           2.45869662561492   -0.49242936664586    1.67848277542920
H           1.78835489472260   -0.76014216889779    1.02329364753564
H           1.97870805143661   -0.40969774600872    2.50734712292437
O          -1.90935020375670   -2.40203158643685   -0.31892004366365
H          -1.96721682137406   -2.59883658919946   -1.98693266717889
H          -1.00334991185686   -2.54513575536001   -0.02588562897413
H          -2.06697056650007   -1.45397855415779   -0.14483815495745
O           2.44929738854089    2.07336720231179    0.92322039653678
H           1.17778913150706    1.82363129915034    0.17525623367061
H           2.09316304890763    2.45250244776763    1.75211967243434
H           2.70966662256805    1.15571576790077    1.16456250145723
N          -0.57162557983202   -0.25338210824751   -2.34926253440628
H          -0.14773366653497    0.40187852605235   -2.99756835069526
H          -1.06090595415590   -1.07019127710238   -2.81127428435756
H           0.12009930143681   -0.61962198945582   -1.63671245006075
H          -1.24276942000755    0.20880818119970   -1.67688878729216
