    26
        -50.46294017  Gyration_radius:  2.65572740628 Dipole_moment: 5.943
 S           0.24423767812526   -0.46447883609813   -0.39619667416055
O           1.52651894373121   -1.10450375818989   -0.52774425961147
O           0.31717126028326    0.78809190609124    0.38459168594906
O          -0.45072567064816   -0.21337258494006   -1.65889937695605
O          -0.73646947000135   -1.38617901708057    0.38575553684421
O          -2.19846219697309    3.32482285893885   -1.58836709889724
H          -2.62270670464013    3.44886723679563   -2.43883118470033
O           2.10830282083592   -0.13702252722198    2.15413073888072
H           1.49016250153980    0.34617940849026    1.57564262937783
H           2.77086507899629   -0.50285576864441    1.56140700890299
O           2.11217945629770   -3.46640739992664    0.57216247785778
H           2.00491427501236   -2.61683755227954    0.09783834953298
H           1.85885267590912   -4.15102876127116   -0.04847661697598
O           0.23919413696394    2.36828991101690   -1.96183415724241
H           0.04651771073472    1.42011557721227   -2.09521693754443
H          -1.24336525183828    3.13821376326142   -1.78131882100637
H           0.70123930974047    2.39536066689230   -1.11737096236758
O           0.51856908077835   -2.27501455839352    2.38923663541926
H           1.09718399630322   -2.91965236258919    1.93404704457340
H           1.10108711367283   -1.50136424525164    2.56317532791150
H          -0.28552303526696   -1.77381983915168    1.23096651079036
N          -2.17382363144157    1.06340735664367   -0.22928732605066
H          -1.27906775318878    1.15354458703152    0.32904141759668
H          -2.93424044833501    0.67611943246958    0.31947091926557
H          -2.39408370320840    1.99243192028349   -0.68596684449429
H          -1.81852819336460    0.39709258591917   -0.96795600289495
