    26
        -50.46507280  Gyration_radius:  2.55450693569 Dipole_moment: 4.274
 S          -0.80724952964415    0.11682179091364   -0.56552466912931
O          -1.02043957127967   -0.11944284042163   -1.98860538768546
O           0.33147478362273   -0.68256711740485   -0.09283954361472
O          -0.61235382457941    1.52643325193627   -0.25695883866042
O          -2.06120643747953   -0.38653301600084    0.19390187850775
O          -0.73466793543019    0.57618147966715    3.65681148128515
H          -1.04907615918183    0.34248363308069    4.53138586731074
O           1.91955311481971    1.67352331039258   -0.87537568482139
H           2.29551852014776    1.09324797123558   -0.20780446646237
H           0.97367203032692    1.77690140637030   -0.61106670548394
O           1.92642895440430   -2.10233700239361   -1.64408480557216
H           1.38088022204654   -1.64189422828655   -0.96424455963533
H           1.51875201844790   -2.96073295451871   -1.76862757663493
O          -2.34419479974217    1.58032445629278    1.76360975967759
H          -2.30947422244113    0.35756256990695    0.84442435210115
H          -1.79774408057534    1.32407147098853    2.54145236002379
H          -1.73594197161500    2.03421648873687    1.15870091624264
O          -0.50163027339793   -1.67507028302431    2.22049393800161
H          -1.40313276075246   -1.87957395273005    1.95736133744152
H          -0.07458823074131   -1.34729768080945    1.40177213936114
H          -0.54291841690848   -0.27193572661843    3.19452277290609
N           1.34948889093998    0.14033191313366   -2.94249798603467
H           0.30320027005604    0.05860756705385   -2.70266307749651
H           1.51626241794694    0.41333447307075   -3.90432499216719
H           1.72237645598034    0.84439841371634   -2.24074351567680
H           1.75701052502868   -0.79105539428585   -2.69907500377742
