    26
        -50.46294009  Gyration_radius:  2.65581064359 Dipole_moment: 5.949
 S          -0.10613263716351    0.54051804014092    0.35896208806601
O           0.56098039021664   -0.30653535853974    1.48177391777236
O          -1.27788732140410    1.20251210082001    0.86893975511197
O           0.96468782230453    1.43592016079978   -0.07972281041058
O          -0.42395405060059   -0.41558236814584   -0.72184496019861
O           2.62047286476783    0.08489961863054   -3.39759104163374
H           3.30042521041538    0.71166994352176   -3.64958898550693
O          -2.20074044321576    0.85580368361622    3.35112705788212
H          -1.76081060906765    1.48922609299948    3.91976562279611
H          -1.94083803011780    1.08626202498066    2.43602231843998
O          -2.70000302448167   -1.29042178623835    0.39601894942981
H          -3.13280879090660   -0.45495969818737    0.59324688381373
H          -1.92436669783871   -1.05224205650543   -0.14429648905700
O          -1.28401514632388   -1.57831171223506    2.64699934232523
H          -1.88800645828271   -1.71163104088690    1.88183697250835
H          -0.14326110533901   -0.86548438786632    1.99128620329667
H          -1.68492037199774   -0.84045392955260    3.14948849296109
O           0.43005872634624    1.40140506771085   -2.71533405399208
H           0.64899733944941    1.66085664798796   -1.79957046656229
H           1.77916310958475    0.60549220891279   -3.32377742494244
H          -0.28135685608209    0.76069913411336   -2.61167860885767
N           2.13397047759188   -0.69884664731596   -0.92581523280086
H           2.67156147366772   -1.36659088387298   -0.38316601527818
H           2.03168032596581    0.23585062695483   -0.44351907672652
H           2.49915431833505   -0.53802577829958   -1.90616443180248
H           1.10794947419416   -0.95202972354359   -0.97339800663780
