    26
        -50.46507292  Gyration_radius:  2.55344076954 Dipole_moment: 4.266
 S          -0.90518387888621   -0.41668119673485   -0.04273077335832
O          -1.20509104625020   -0.88489640792293   -1.48953787563206
O          -1.36175291576254    0.95819222728786    0.10412372912858
O          -1.57910900842284   -1.33003074598858    0.87255937584041
O           0.54933405662841   -0.50572132086559    0.14582175043197
O           0.83928244289668    1.91177703218942   -3.13489791730845
H           1.13478231367063    2.02249927955633   -4.03977778547339
O           0.11073956628418    1.60243726345514    2.16041552370344
H           0.98788731135690    1.54477728256965    1.77181085171923
H          -0.50699755891988    1.50845995375965    1.39560596828285
O           1.74409255171927   -1.88592733589259    2.05245213733531
H           1.41655926579033   -1.36674812647352    1.28111745478612
H           1.84238174427946   -2.78602652037185    1.73831149914099
O          -1.71017971015101    1.38152793380523   -2.50053962163337
H          -1.78609576526134    1.67430142074409   -1.57836822438288
H          -0.82665303736238    1.69350878072071   -2.80286512302464
H          -1.47158226231951   -0.04605324418315   -2.00291429803384
O           1.51510191942177   -0.55161320579433   -2.32286992439570
H           1.20545449029266    1.05136752107712   -2.82595510301002
H           1.28058606186188   -0.51484037022262   -1.37217076069936
H           0.84751766504727   -1.12153969976100   -2.71451316111354
N          -0.43396568039183   -0.79582834836738    3.10862234911175
H          -0.89099903439039   -0.95401090651142    3.99944427603674
H          -1.03864128097091   -1.08656050890557    2.26704726413794
H          -0.21540147921332    0.22790334238325    2.93031761062788
H           0.45793325905082   -1.33027408960782    2.99949075779422
