    26
        -50.46507282  Gyration_radius:  2.55446338573 Dipole_moment: 4.272
 S          -0.88667558875638    0.16077195264450   -0.41737437797778
O          -0.11196946686689    0.19725399068468   -1.64977979167427
O          -1.36896230328064    1.59786472617945   -0.09411426793671
O          -2.06349033731337   -0.69395424727998   -0.52196607131928
O          -0.05195957628539   -0.27655162217523    0.71010219268556
O           2.15638032692375    3.09770959063867   -0.01020438480211
H           2.46343782846848    3.94849275629208    0.30637813890449
O          -0.47014318389209   -2.45359755201395    2.14286339804316
H          -0.23409492792057   -1.60207037626221    1.70601998577321
H          -1.09268284671692   -2.22776935232204    2.83561374586694
O           1.21154480214338   -2.02468146572004   -1.29642873981217
H           1.73345495613647   -1.79446018644770   -0.52285866277125
H           0.78863616191917   -1.17605878746104   -1.57256370296786
O           0.64495330949881    1.98608018679531    1.90417148406904
H           0.47953331350598    1.09333016411185    1.53580057977293
H           1.70986351372151    2.66205922591478    0.75175805569592
H          -0.19968709784191    2.43851661686159    1.82884431482554
O           0.11115070052779    2.84871177440056   -1.72411687442177
H           0.92301089301606    3.02612325748393   -1.19615752254893
H           0.25023446254127    1.97669954249547   -2.12677659279375
H          -0.86527340966296    2.21065716245452   -0.73386708273534
N          -1.04008822873033   -3.04498464511349   -0.38182253539001
H          -0.89102852125950   -3.12793988557143    0.64949225539563
H          -0.09865115632012   -2.83024201727416   -0.82345383641878
H          -1.49341193230868   -3.85492811953495   -0.78917403089310
H          -1.60408169117030   -2.13703270021381   -0.51038568655252
