    26
        -50.46507285  Gyration_radius:  2.55422413381 Dipole_moment: 4.271
 S           0.26774823363863    0.55735772912962   -0.77752108816338
O           0.22219745096602    0.29673405336225    0.66780939460404
O           0.11560363447146    1.98589530947117   -1.02749538069701
O           1.67524986654661    0.13495491605790   -1.27059778717808
O          -0.72838067191383   -0.24105829955823   -1.47800504995383
O           1.24959745647233   -3.54679227228580   -0.29676070426383
H           1.89305760616711   -4.25426600784647   -0.23532678135213
O          -0.34084735928182    2.10192728044803    2.50901436469248
H           0.47471364740454    2.55611349590321    2.72603271550644
H          -0.08342736383774    1.35385396560749    1.92091708849900
O          -2.68316119826233    0.06164700869745    0.22487552100015
H          -2.31954954111497   -0.39206785431253    0.99010473845975
H          -2.05043221794573   -0.13787232369966   -0.50671615370931
O           2.18713551715869   -1.43835755397437    1.06723585708504
H           1.56024513725611   -2.83497213033620    0.30869748445313
H           2.83281334006994   -1.04297594244346    0.47518240807237
H           1.42169022643882   -0.82725651889226    1.04010768410824
O           1.01122963768672   -1.99486321810180   -2.46876009224647
H           1.53448910344639   -0.71156278901386   -1.82027432772391
H           1.07712707426788   -2.67721434795274   -1.76213798570632
H           0.10928479468381   -1.64236918784612   -2.40424332895178
N          -1.91744633548754    2.57595756033560    0.42635603251835
H          -2.52090013178835    3.36258497302145    0.21534522507528
H          -1.10081355837745    2.47303714309695   -0.26738066357033
H          -1.46705641482877    2.63937337408310    1.36766074403974
H          -2.42016790384563    1.64219161711226    0.37588009541096
