    26
        -50.46623441  Gyration_radius:  2.38640466921 Dipole_moment: 3.317
 S          -1.30978778429049    0.66243050887669    0.43816798859807
O          -1.91106739491932    1.97662455184947    0.26018147035075
O           0.08753862361861    0.96576511376697    1.11531213758859
O          -2.01795255510709   -0.26352443781854    1.28416927341891
O          -0.98468357912628    0.08940994174265   -0.87825808497087
O           0.96816727159533   -2.70295445316572    0.53053863228145
H           1.26447087126427   -3.61402679928436    0.53401458012034
O           2.05396203824577    2.03745065297343   -0.48086468800740
H           1.74232572739551    1.96043599182319    0.42985898902365
H           2.11690395757912    1.09885001435848   -0.78706683732595
O           1.61015036641290   -0.48786891041438   -1.14463434308792
H           0.64659227971906   -0.32460152623807   -1.12878135350283
H           1.73239160380686   -1.24578327027839   -0.55720770808256
O          -1.51321848028565   -2.45284482510589   -0.34737704287707
H          -1.37301803519206   -1.57268045240154   -0.75058231935532
H           0.05338443682161   -2.70539966565678    0.14522698686847
H          -2.09163582656085   -2.25963832108421    0.39853258306439
O           0.17925766737407   -1.11631013284009    2.59646793510482
H           0.25977794481271    0.22462298830691    1.76984326965579
H          -0.77782672479611   -1.10141885658063    2.43335456589936
H           0.56027291316018   -1.76763767843357    1.97504630081672
N          -0.25457255476983    2.55410107411628   -1.59406807940472
H          -0.97734270153180    2.48088344445370   -0.78294337463627
H          -0.43675413156713    1.70751214040366   -2.13835073532932
H          -0.36597285709618    3.39802933233304   -2.14736067903077
H           0.73863692343506    2.45857358429337   -1.17321944717695
