    26
        -50.46267201  Gyration_radius:  2.63270019806 Dipole_moment: 5.625
 S          -0.93900146792962   -0.09852312175129    0.24495308383703
O          -0.30892445224803    0.03565841421928   -1.08049919015063
O          -1.36299740683414    1.21591052760210    0.73573803371033
O          -1.98432735330663   -1.08791096766444    0.24992252985193
O           0.18309436198235   -0.53927183711395    1.22940468448567
O           1.96428738100933    3.30467713945768    0.57235694798912
H           2.11750161005086    4.18586165022813    0.91643338102033
O           0.57898795382274   -2.28763973563806   -2.12551181559168
H           0.26954166785486   -1.39485450821087   -1.88502073940871
H          -0.20210253896394   -2.85251883315304   -2.07335588025842
O          -1.54906780935174   -3.51881200111571   -0.62303823758189
H          -2.35491380509242   -4.02712736373475   -0.52555930976883
H          -1.77002193110066   -2.60505854285386   -0.32683255112947
O           0.91144149119989   -2.85134663059836    0.44641979295758
H           0.49949246247443   -1.46696260171942    0.96015055509361
H           0.09484419427909   -3.37353204474010    0.41502791369098
H           1.10263121221033   -2.68212966327040   -0.50615707565669
O           0.62295219198819    1.93488801773943    2.37758187230012
H          -0.20062259345571    1.70445671772439    1.89993689342673
H           1.01733070585531    1.08187722942454    2.58068194231925
H           1.56779989046964    2.78249384032286    1.31923021501894
N          -0.03956749371475    2.55483194494410   -0.99298703885811
H           0.08692784704858    1.54244856195625   -1.29933844025184
H          -0.38062244413065    3.15282538855464   -1.73726351799027
H          -0.75579498763756    2.36085624838223   -0.24126120543189
H           0.83113130352236    2.92890219102628   -0.53101287360163
