    26
        -50.46347338  Gyration_radius:  2.63623151844 Dipole_moment: 7.102
 S          -0.48559854015957    0.34730886591942    0.46292191829112
O          -0.66350938148147    1.28037481424592    1.54736038149275
O           0.86891787238151   -0.38813593791740    0.64499817169886
O          -1.48692769498436   -0.72391563268251    0.43831632681598
O          -0.43942059346671    1.02174184104893   -0.84666873934540
O          -0.52349588636709   -2.81689888281875   -2.76917073955710
H          -0.89761946977940   -3.66281800961637   -3.02012191119736
O           0.87681532458799    3.16670939135902    0.05933179043798
H           0.34758940253867    3.34107938152510    0.84331025003424
H           0.38758152759298    2.47337145659762   -0.42071224745264
O           1.16987687450801    1.67175138744298    3.43435102097839
H           0.41129934379486    1.58111213325725    2.81995382828494
H           1.05148933187611    0.99709684072601    4.10418270633539
O           2.56671238320824    1.40713612998797    1.14384146165459
H           2.33567208699856    1.55990819548572    2.08223288683099
H           1.61127993836219    0.30874968785083    0.81463688235123
H           2.16548621027113    2.16626634312156    0.66214211769735
O          -0.02525021524094   -2.87405402197425   -0.18394820335123
H          -0.23027412095448   -2.91516800848440   -1.82511724194368
H           0.85465242385888   -2.57534240988289    0.06311640138608
H          -0.61587095706071   -2.17298028951672    0.16164237249527
N          -1.88741837892298   -0.64684998833719   -2.09147060819856
H          -2.07815241514697   -0.88450703457073   -1.08235382429228
H          -1.39237530543928   -1.46383015599197   -2.53849050470935
H          -2.71143796797339   -0.35339054601242   -2.60409167520045
H          -1.21002177298098    0.15528444925060   -1.90019281153712
