    26
        -50.46267204  Gyration_radius:  2.63303754052 Dipole_moment: 5.631
 S          -0.97448105034902   -0.02082062260583    0.00549871216411
O          -1.36383929335110   -0.06626562274833    1.41781490784736
O          -0.21835097690879    1.33108831736486   -0.14762167393493
O           0.00198621597539   -1.08577101476568   -0.28471671927493
O          -2.08737182482965   -0.04317680614765   -0.90694952146739
O           2.09601369112305    0.16291573451245    3.27147832809087
H           2.24566445033019    0.27247193204650    4.21166118118214
O           0.86978809583884   -1.12916452951601   -2.83889944771865
H           0.04484945348268   -1.15045650059760   -3.33983207841001
H           0.61018494911088   -1.25055669172728   -1.90696182053337
O          -1.71090308313083   -0.03109577942404   -3.49911212218403
H          -1.89848820219881   -0.08159566394445   -2.53278467134404
H          -2.56547589378436   -0.03437848215631   -3.93157174788300
O           0.42756795912191    1.47764717201253   -2.60761221625411
H          -0.40375772350998    1.35715727291609   -3.09222819239247
H           0.05187801278801    1.43812795422175   -1.12152790555163
H           0.88744729795452    0.61533382456091   -2.73950073519647
O           0.17385821214455    1.80977349656735    2.54543121253379
H          -0.51098614834692    1.19843584249792    2.20363736171852
H           1.45747886994173    0.87797088835995    3.00929835487772
H           0.40006028262610    2.35080724262778    1.78350649207900
N           0.51895004567230   -1.63926681378864    2.13457831236672
H          -0.39077060830511   -1.10614511206660    2.19652672164647
H           1.26870476299521   -1.06905504868895    2.60821912855630
H           0.46103585611328   -2.58785819815538    2.48767350556940
H           0.60895668949936   -1.59612279136225    1.07399464350823
