    26
        -50.45606794  Gyration_radius:  2.60081119234 Dipole_moment: 7.228
 S           0.43851538803087    0.00502076803207   -1.02283411314713
O          -0.33105596665028   -1.14931774975261   -0.55344706051901
O           1.73982717975631    0.09515737225989   -0.42374054057278
O           0.44976058381199    0.04730875036738   -2.49273725108373
O          -0.39908118955484    1.27195600519278   -0.63291950156771
O           0.88261580578898   -0.14535833928974    3.18396596317269
H           1.78698299280890    0.13439415365441    2.97887631813478
O           2.94457514751908    1.08465534003519    1.72980780746011
H           2.53392544817202    0.69748497861859    0.92896434262936
H           3.88367035737372    0.91681053384693    1.64535463813393
O          -2.66874225079395   -1.49474526179904   -1.60587810976991
H          -2.62436828183064   -2.34703463832154   -2.04317930270708
H          -1.81227874479883   -1.40714644233384   -1.10542897643016
O           0.19444263980000    1.92963068587308    1.73450079445139
H          -0.18035400837678    1.52577993337140    0.33337566213140
H           0.25266304521220    1.13488460780773    2.33180021267966
H           1.10803620066290    2.23479643263526    1.68645647401602
O           0.50209264836008   -2.35694885786550    1.66455136538026
H          -0.27865659495648   -2.86110015762857    1.90060670800495
H           0.29650904903236   -1.92178221001582    0.81191357020397
H           0.76057206653622   -0.98915278296537    2.70411906812558
N          -1.93554675343276    0.74135482024054   -2.78336227035961
H          -2.43265894142198   -0.12200953409774   -2.43004308213277
H          -2.27430160642801    1.05750174883716   -3.68559285591016
H          -1.99225383850099    1.47157757076350   -2.07397373727230
H          -0.84489037613206    0.44628229255557   -2.78115608305680
