    26
        -50.45997516  Gyration_radius:  2.56999588082 Dipole_moment: 7.037
 S          -0.22235527023772    0.25675203075667   -0.98625768842566
O          -1.46396150610324    0.07858035670041   -1.75044804169618
O           0.89039047771463   -0.44756382669984   -1.62137613254384
O           0.08134532939105    1.64012102493064   -0.70517927957777
O          -0.51644855927703   -0.48548719712587    0.35397722081988
O           0.38814443771014    2.00562280834655    3.18123413720895
H          -0.14624305885704    1.70706588434877    3.91851797835370
O           2.71960184181177    0.96055079285398   -0.25210932429839
H           2.28166459790121    0.34725798131607   -0.86843396324632
H           2.19604227108102    1.76627197012619   -0.32613292710031
O           0.44888734664597   -2.95086804150049   -2.11852242755001
H           0.64627009767695   -3.06851636101696   -3.04948640590564
H           0.73325330686568   -2.02197986558668   -1.90283718927691
O          -1.31517306715043    2.72371372266914    1.23727957598002
H          -1.34134768202926    3.65608936922810    1.01403886269613
H          -0.85600633095949    2.28604171368481    0.48511267184574
H          -0.24497210111935    2.31189711090478    2.49263819094617
O           1.44178952076028   -0.06754145739126    1.85218674265950
H           2.09486473357931    0.28515916315670    1.20400285960386
H           1.16232801792818    0.70090986565535    2.40242771269869
H           0.28990135248075   -0.34516474124374    1.00492950518891
N          -1.88987866886086   -2.30932976549929   -1.11005614563045
H          -2.76353075064798   -2.76579085403366   -1.34928832226286
H          -1.04151650818992   -2.77060096161309   -1.54543367164135
H          -1.82384669356014   -1.24447200405809   -1.45870933953905
H          -1.74920313456138   -2.24871869889772   -0.10207459932216
