    26
        -50.45606796  Gyration_radius:  2.60059355603 Dipole_moment: 7.233
 S          -0.22749855759522    0.49960723477620   -0.96490400416928
O           0.55762332267536   -0.85393063716501   -1.06599657218370
O          -0.80481258519911    0.65569486594794   -2.30829348009974
O          -1.28712409896531    0.28018160180761    0.02197198833758
O           0.68069546695994    1.54684802018064   -0.59214052313603
O           1.61556724278337    0.50083339362311    2.84182833224897
H           2.15961656369021    1.19767616163750    2.44621963781105
O           2.91393557159145    1.92552270549358    0.79901435163805
H           3.17549051729957    2.84073101064382    0.69358197943416
H           2.08544024922177    1.82664282252243    0.28546193095878
O          -3.05533751803248   -1.51904027066660   -0.55069508860914
H          -3.88974700612099   -1.04817749818618   -0.58998148664706
H          -2.39026714693480   -0.85538709882143   -0.22079238822021
O          -0.93561779368393    1.32341814677859    2.44321552268316
H           0.69516965862007    0.82612944286768    2.77633420421380
H          -1.04220914708123    1.03783554160039    1.51283386244838
H          -1.58328323696979    0.82896350246894    2.94864078087053
O           2.33053220713836   -0.88919294176960    0.73549945089234
H           1.25855154151928   -0.88308495087598   -0.32187128484761
H           2.96561175608932   -0.21344527706345    0.47054057832341
H           1.98086785736763   -0.54324778925733    1.60142101488210
N          -1.45441146022546   -1.73841113586564   -2.62727479074838
H          -1.19453113771690   -0.63906818752432   -2.60890080464861
H          -2.21152668565401   -1.83240874970129   -1.89561249258365
H          -1.73538226217389   -2.07978231725305   -3.54006972481642
H          -0.60735333858442   -2.19490758620422   -2.29003097404172
