    26
        -50.46378405  Gyration_radius:  2.40566076636 Dipole_moment: 6.535
 S          -0.04712018491931    0.89786075204347   -1.04438182344199
O          -1.12403695928739    1.49871589433194   -1.83386876240172
O           1.27556890807096    1.18301728687234   -1.51792677589344
O          -0.26358029483250    1.50261441441770    0.37545250650822
O          -0.26905204960788   -0.55567250255976   -0.89675567913684
O           0.32321957808470   -1.92222275976971    1.35463478512834
H           0.10359828580810   -1.48708906693440    0.50810919475558
O          -2.50356913581709   -0.92651525268031    0.42958056747461
H          -2.14195229000341   -1.29365635644659    1.24183278110129
H          -1.74019093808375   -0.89304668923979   -0.19356477837728
O           3.21316102098593    0.18312134547541    0.04417736515391
H           3.05931697039519   -0.72332996140697   -0.27302632037755
H           2.70562012895744    0.73352737199422   -0.58057720484283
O           1.41745933320748    0.48504907825659    1.93380022370995
H           2.22912960367154    0.42299137334553    1.36361478005094
H           0.45275182827123    1.14101779068857    1.03560180046175
H           1.06784801993154   -0.42658475436454    1.98904552910169
O           2.02414376110580   -1.94039171661291   -1.25076624749450
H           2.35488189568850   -1.89494962784263   -2.14904730781446
H           0.98872504698605   -2.57660056506189    1.12945899950415
H           1.19037957685584   -1.43222309504910   -1.24855467906234
N          -2.90542558773145    1.62523614363700   -0.06626273180913
H          -2.17457685127479    1.62454510697973   -0.91927634883647
H          -2.49990745698424    2.21462506623669    0.65674584950318
H          -3.82751902412066    1.94419899048513   -0.34534068784114
H          -2.90887321531756    0.61576171323646    0.25729496486830
