    26
        -50.46259540  Gyration_radius:  2.71950290048 Dipole_moment: 4.459
 S           0.01381921732410   -0.59677248799299   -0.25629377153481
O           1.08847682561181   -0.98918068590869   -1.16259896328459
O          -0.88422737603328   -1.66294280303896    0.08891364535860
O           0.75077147870745   -0.10943456062643    1.04223587037117
O          -0.69616278415590    0.58699830532801   -0.77543892897351
O          -2.89083736079058   -0.35961035252956    3.20083346041174
H          -2.68796142866910   -0.29771590945741    4.13568332497170
O           1.36904129256730   -0.22604330775046   -3.68042268974066
H           2.20212847153084   -0.59380289924571   -3.98097909081002
H           1.17452591546054   -0.67143458341347   -2.82513400805348
O           2.89950950468706    0.80577289962779   -0.49579599002752
H           2.38357284723124   -0.00233646147718   -0.71929305160655
H           2.79219821826248    0.89459276773237    0.45505477442663
O          -1.27536431556689    1.23202873266514    1.79825841730131
H          -1.93376641614649    0.69846679134299    2.30607409933245
H           0.03353707195389    0.41170304778175    1.51269047174954
H          -1.53771377034028    1.18824327495715    0.86862522000877
O          -1.80912676193540   -2.64025298970071    2.34702542028010
H          -2.53995755113066   -1.23282105584559    2.90430959704233
H          -2.42074666681433   -3.31554237763853    2.04774197759905
H          -1.38439794215316   -2.29774298529194    1.52931638376687
N           1.07589247131828    1.88280466035726   -2.08397435639602
H           1.21097301455777    1.27657671578722   -2.92668047217593
H           0.91230960675464    2.85563200993272   -2.31636600666916
H           0.24351952363886    1.43178625150953   -1.55218596481630
H           1.90998692413087    1.73102801289119   -1.46159936851654
