    26
        -50.46460099  Gyration_radius:  2.41204307167 Dipole_moment: 2.668
 S          -0.43986742473316    1.20194242941951   -0.55209901741898
O          -1.10887604481143   -0.10489422364084   -0.57447060802038
O          -1.41021060556543    2.23972809705988   -1.16078064983924
O          -0.13626362250061    1.61659096002445    0.80312852793107
O           0.76351353902580    1.15397519717039   -1.39347138401234
O           0.27114220951962   -1.63046493383155    2.56554867681727
H           0.12036173544036   -2.18492129690296    3.33185154066956
O           2.41718188019210   -0.39909380274773   -0.35999534017462
H           1.77340666538715   -1.22884291531199   -0.32327032854828
H           1.84084168779470    0.29941837584062   -0.87805783762920
O           0.57607161362208   -2.08424938065783   -0.11015731271839
H           0.48970202428124   -2.16051444710134    0.85908312190539
H          -0.13516651209416   -1.45728826018543   -0.37953450641635
O           1.93837900732985    0.44984877356792    1.94578807043944
H           2.39804166019574   -0.03464052154297    0.63130650847041
H           1.22213920532222    1.05201914662845    1.64057527096966
H           1.47686850992244   -0.30612170751680    2.35580599727922
O          -1.81649011900862   -0.15992618932802    1.98579201325038
H          -1.47807278489866    0.73726247339385    2.10093075387397
H          -1.78789322436784   -0.27521285898220    1.01539159005043
H          -0.56827539978763   -1.10842936177527    2.42202146879206
N          -1.31912652974141    0.83432679032397   -3.33756069898972
H          -1.54790626316355    1.88005206977764   -2.08349299888206
H          -1.67845376368315   -0.03109849942421   -2.95375203854786
H          -1.55047909598315    0.88245931873347   -4.32160219577229
H          -0.31056835768921    0.81807474700681   -3.22897859347693
