    26
        -50.45730808  Gyration_radius:  2.49213740997 Dipole_moment: 3.247
 S           0.32631357791226   -0.74930306393802   -0.71269832755995
O          -0.35511957892641   -1.97768993249344   -1.03129047399375
O           1.33047840203106   -0.39482803208162   -1.86873780934401
O          -0.60892292727804    0.38467535908693   -0.65047830317196
O           1.15292809186390   -0.81138273634346    0.48405242187528
O          -0.34117925064486    1.89034911865633    2.84203434963303
H           0.37259185659288    2.00499497888579    3.47270376096998
O           2.62293116503907    1.31108720133641    0.22379133914792
H           2.92656116839219    1.25735140832689   -0.68581760145440
H           2.21957374393680    0.42744098083811    0.40851814489799
O          -2.15638717116048   -2.07825183301110    0.97178972410772
H          -2.20272561528569   -3.00777060150155    1.20601903666237
H          -1.57389989104102   -2.02782278704998    0.19057821130974
O           0.31504329622367    2.37559744002900    0.45926485134606
H           1.30167356615251    2.11718275655303    0.40288414054867
H          -0.16425191093334    1.56206951930403   -0.05142072220000
H           0.01984977920521    2.25667585499425    1.45728694017640
O          -0.49351163692600   -0.67784273983023    2.60651928176971
H          -1.27810046077049   -1.07858253050874    2.18619343713055
H           0.21672110345059   -0.81251400455937    1.95351162609606
H          -0.51228882704110    0.90026335625612    2.79725505983290
N          -0.70240988180349   -0.56037741947627   -3.47513876452753
H          -1.27724709520459    0.21852363651355   -3.17817141456172
H           0.73625855887308   -0.40149082830405   -2.67212261706151
H          -0.95753053054486   -1.35491268768370   -2.89531288886499
H          -0.91734953212174   -0.77344239399122   -4.44121340278260
