    26
        -50.46294020  Gyration_radius:  2.65585914516 Dipole_moment: 5.944
 S           0.26618717580507   -0.46335829559304   -0.38264870908311
O          -0.78305962801148   -1.48144319486354   -0.43712870014038
O          -0.11879200259064    0.52222080010828   -1.52427747241074
O           0.13741714400177    0.31155212930528    0.86895929242447
O           1.60199432221449   -0.95880594176891   -0.58616200203781
O          -3.49387342500559   -0.81681196972287    2.35326559111128
H          -4.14668721343322   -1.51535740604185    2.28585609693813
O           2.53521845021730    1.49660320256528    0.66401281558760
H           3.09618705711992    0.73408294167057    0.49652649241256
H           1.66345879245994    1.12439455528832    0.89154634237507
O           3.18756617737709   -0.14244871414875   -2.57433981900791
H           3.01063775780650   -0.69432103701871   -3.33735316186724
H           2.69045587059450   -0.53996442917765   -1.83071509701637
O          -1.07193436340297   -1.87023258477052    2.20797263436878
H          -0.97576000016982   -1.97802041327487    1.24196311979353
H          -0.43488749656039   -1.18326987971041    2.43038879729353
H          -2.61836420599786   -1.26813774524904    2.47160183519633
O           1.84305473417721    2.07849513911637   -1.85319828249132
H           2.16958031572557    2.11496785763862   -0.92572842642436
H           2.45439283093516    1.46127057791311   -2.30372335923925
H           0.64173031263662    1.19952236421753   -1.70000204216321
N          -2.37729224268723    0.40566374371209    0.29891546876103
H          -2.79583080201891    1.12621495773523   -0.27986950000086
H          -2.03742937869799   -0.42432365322841   -0.25900488557255
H          -1.44462571051093    0.70324945845885    0.70153568240645
H          -2.99934447193318    0.05825754686354    1.08160730880729
