    26
        -50.46294018  Gyration_radius:  2.65587932963 Dipole_moment: 5.942
 S           0.31651263164099    0.09714113824257   -0.56780647238968
O           0.01726806856880    0.38213350150234    0.85101623070087
O           1.66876818697070    0.43884085186707   -0.92256019118396
O           0.08750691300674   -1.43252074841450   -0.74271377473897
O          -0.71317394354240    0.69936385546361   -1.41481093275980
O          -3.77856291604013    1.88130140822741    0.77188454659401
H          -4.41422811118633    2.28038494994504    0.17578071919027
O           2.41756422364532   -0.39468847791836    1.76240066537949
H           1.52397328231247   -0.04982000607675    1.58123654117886
H           2.99803950613835    0.09334898277903    1.17162134556888
O           3.50851998711845   -1.36601242160787   -1.62284386758978
H           3.43911303530735   -1.50592361401952   -2.56819846313016
H           2.91540565549999   -0.61552943582904   -1.41505959695510
O          -1.35652991273463    2.76543615362736    0.18156541305893
H          -0.75714489243371    2.47987559828115    0.87902364683515
H          -1.13015579982439    2.19027161554021   -0.57475711430705
H          -2.92588770780760    2.36882507261084    0.63220641925458
O           2.07206305236723   -2.60240842563249    0.29254119996844
H           0.86313078522522   -1.97272570316771   -0.32484712030522
H           2.74064009780585   -2.40821141850438   -0.39518639147086
H           2.26940079873447   -1.96375465788985    1.01459650805804
N          -2.39716426536413   -0.30699408320440    0.25744583696540
H          -1.52807646933500   -0.16038920187650    0.84385354881646
H          -2.73520416647992   -1.26265945728339    0.29985465292431
H          -3.11855766011564    0.42318315661661    0.51567584317171
H          -1.98322036957126   -0.05846862326579   -0.68191919287566
