    26
        -50.46294017  Gyration_radius:  2.65576783225 Dipole_moment: 5.941
 S           0.24607012475162   -0.19832926006823    0.57636639271593
O           0.11725128355665   -1.65372774202751    0.50136486011347
O          -1.13856657216828    0.26562392746945    1.11525749909025
O           1.29643692704258    0.27309753721344    1.43993794937627
O           0.34628473202799    0.35912063329461   -0.78855827638891
O          -0.62856305413522   -2.78078963510005   -3.20645641870596
H          -0.68750626372306   -3.73745674823787   -3.20551597882029
O           0.86788476223073    1.84238371150473    3.55808690859833
H           0.68675439172167    1.27785284238682    4.31074535711141
H           1.14324860588643    1.24642258982617    2.83203964674344
O           1.12627502912165    2.79942179026266    0.00644541059127
H           0.88584747112326    1.96267995949059   -0.43208150656586
H           1.84354556732326    2.57094427743594    0.60434043852398
O          -0.91532946192655    2.70462947121078    1.73163153387719
H          -0.25985636287513    2.97741988230956    1.05035208261586
H          -1.11842811741610    1.26598128355618    1.37409115395682
H          -0.39021229395133    2.60805275814739    2.55176685999434
O           1.47593940491612   -2.03605243930338   -1.78770724975758
H           0.25796612602239   -2.55885895018707   -2.82036629436688
H           1.60813500019570   -1.09225165240791   -1.92560987109553
H           1.11658558241051   -2.09426760052970   -0.88135287995616
N          -1.62923540466601   -1.20621855854093   -1.34075023855033
H          -0.99110124713727   -0.36376459612126   -1.40013278921302
H          -1.44356295446586   -1.84210484622272   -2.16621665059887
H          -1.21305237756079   -1.64389006977770   -0.47414588468148
H          -2.60281087828001   -0.94591856556529   -1.22353206462819
