    26
        -50.46460241  Gyration_radius:  2.41073597564 Dipole_moment: 2.668
 S          -1.05482168813980    0.89492867396121    0.19696610365321
O          -2.39976934937409    1.44491251861218    0.72426189247967
O          -0.02957244335468    1.92703453064453    0.39802955269671
O          -0.71670027217336   -0.29689425205713    0.98601242807713
O          -1.22598577736895    0.56804401451426   -1.20464758915546
O           1.00407387907784   -2.37319185304035   -1.62810362907144
H           1.17187762405828   -3.24283579734115   -1.99267226263283
O           1.79228606037586   -1.03844396262239    0.62016847144056
H           1.68089930083825   -1.67048442018131   -0.11520248447652
H           0.87550560566286   -0.82398356870461    0.91113546412274
O           2.12326644833014    1.13970286879106   -0.58017125719237
H           1.28630484235820    1.60674455492661   -0.16662578872427
H           2.16864609316561    0.24649554139870   -0.02956676506116
O           0.98555770695018    0.18684323519488   -2.59636213623342
H           1.77572091699279    0.82290789757285   -1.52588777026167
H           1.08395814769515   -0.77433332036665   -2.45821159767839
H           0.08450986498507    0.40202334391544   -2.26414498808019
O          -1.46883966687726   -2.10694893291272   -0.80863234943439
H          -1.80157635177867   -1.40283161089292   -1.37984742151648
H           0.04575827598818   -2.36225389855768   -1.34666027441312
H          -1.27742045336065   -1.63230907111066    0.02419946277393
N          -1.20725196925837    1.73483366754686    3.00700518107114
H          -1.32318031733873    2.12422137779542    3.93393234534575
H          -2.18228582860847    1.64650510719819    1.67868938813918
H          -0.45316049286216    2.21786835320836    2.53097449351018
H          -0.93780015598445    0.76144499250707    3.08536151061699
