    26
        -50.45730806  Gyration_radius:  2.49215703792 Dipole_moment: 3.248
 S          -0.41159790237115    0.19080516942002   -0.98410985693475
O          -1.24113501892073   -0.90382402871597   -1.74843858231862
O           0.04178397784996    1.18716059346558   -1.92035722201654
O          -1.32015338239603    0.69221254973792    0.03692863078911
O           0.71753082206169   -0.53157668618365   -0.37791657742942
O           0.49076548858005   -0.04143921942149    3.39489467167803
H          -0.23170006989291    0.04406266388688    4.02029362882098
O           1.63925121132819    2.66842682923336   -0.33226847564496
H           1.13594890866964    2.10573967363070   -0.95047791781658
H           1.48844553661154    3.57254675220271   -0.61665210252070
O          -2.33078200186160   -1.50714074360221    0.97223232445479
H          -2.57191655765928   -1.99222077502430    0.17920029928791
H          -2.11950884004459   -0.59439012088620    0.65609316649090
O           0.16315216479297    2.00689813215382    1.85487834954383
H           0.47130072721296    0.79447346520338    2.83601744070159
H           0.88413602041521    2.28321900799495    1.25766620474230
H          -0.51039460897902    1.63928825354868    1.25474521616007
O           0.11525381737608   -1.80610908269962    1.63752589708141
H          -0.89584819825790   -1.81929747553689    1.49316926991926
H           0.46498130488045   -1.29448544598081    0.76112884758798
H           0.30865576507432   -1.13313196827302    2.41676109195251
N           0.83246811977419   -1.18140173817612   -3.28584489642046
H          -0.60230342509215   -1.19156288098541   -2.46108064723881
H           1.52492006596865   -1.56324329796112   -2.65323551497862
H           1.06939491135749   -1.45548585497824   -4.23125111041878
H           0.88735113352506   -0.16952378205545   -3.20990211547304
