    26
        -50.45940106  Gyration_radius:  2.54046624226 Dipole_moment: 6.843
 S          -1.03703508588683   -0.25304989518088   -0.01978932060805
O          -0.10861820551001   -1.04602469025244   -0.83098601691426
O          -0.56837735564828    1.22759810920662   -0.14146960963902
O          -2.37318646103567   -0.24134135906871   -0.62931590835044
O          -1.03681910914692   -0.65187061407244    1.36635781791416
O           2.83859472008609   -0.67471535598765    1.41006329504111
H           3.44734216804607   -0.81720175623728    0.68422015463524
O          -0.16324371207609    0.80653943204447    3.42479397831822
H           0.25839351855431    0.16882630722956    4.00416673990414
H          -0.62181208088564    0.28493447492630    2.73498475132879
O           0.01279811860166   -0.34710218909667   -3.31936303566764
H           0.08071960690896   -0.63212857544952   -2.36806752748082
H          -0.15460258789825   -1.15048993418910   -3.81550589267237
O           0.95244677879062   -2.53073732212087    1.09590058643924
H           0.64031241364726   -2.13620600439237    0.25865681102826
H           2.19082932008650   -1.41889803818123    1.37061300312991
H           0.24936011390985   -2.30390172952945    1.71412313184788
O           1.39243052826002    1.57651481735687    1.38047826702433
H           1.98778799260282    0.79150980067626    1.36228109461874
H           0.26478583831039    1.38319831718512    0.45939052377068
H           0.91884295314915    1.51235804322018    2.23756100874482
N          -1.85321847718676    1.32427498190971   -2.51471638871725
H          -2.59580388202540    1.68025106127445   -3.10701842545039
H          -2.21213949516872    0.62908703601230   -1.70429375376834
H          -1.13769637249100    0.74957138736997   -3.04115409181565
H          -1.37209123597680    2.06900369528756   -2.01191120312614
