    26
        -50.45940052  Gyration_radius:  2.54246142877 Dipole_moment: 6.812
 S          -0.14901424766954   -0.77103814317674   -0.72073107911974
O           0.08459934395211   -1.40676666747419   -2.02398139123872
O          -1.30453729678746   -1.28362445936514   -0.02608933150635
O           1.06465362871082   -0.81845077015065    0.09982662383693
O          -0.37378829345413    0.72758555528985   -1.08204199352819
O          -0.43340110590648    0.80285456323057    3.11945212426424
H           0.41558442230820    1.11788838455116    3.43206165695305
O           3.17703385394613    0.14516549910901   -1.04287914559147
H           2.40312997850262   -0.17606898426930   -0.50565986086847
H           3.83513247619388   -0.54982821020648   -0.98388673471801
O          -3.44350715447634    0.12477874248048    0.72761046384176
H          -3.68459595768582   -0.24862954029666    1.57765358662110
H          -2.75589219354424   -0.46537113897030    0.35731901095538
O          -1.42358809912893    1.88217585455727    0.87978192720596
H          -2.30688342851554    1.45670704658446    0.83715397364814
H          -1.02930179517962    1.55968334115013    1.72316677609639
H          -0.77946534682406    1.22958805362463   -0.26807675632245
O          -0.00466285587038   -1.71400018668166    2.35775427449456
H           0.57259309544110   -1.44755064762582    1.61625934650478
H          -0.31349713543877   -0.15904538822979    2.93091045022099
H          -0.81096118990996   -1.99361929304155    1.91077544525768
N           1.47301857251505    0.42047386323509   -3.02863854800371
H           2.30727151059088    0.39833713015531   -2.37838161576392
H           1.72857200102965    0.39132272994788   -4.00986062316958
H           0.84977959288739   -0.45677181690264   -2.69529193638958
H           0.90172763435132    1.23420449245921   -2.80420664368694
