    26
        -50.46584236  Gyration_radius:  2.39855842876 Dipole_moment: 4.271
 S          -0.35422703546970    0.84239568738725   -1.64062376488148
O          -1.72228939486845    1.29607656946774   -1.64246241689795
O           0.48607632751902    1.24425095552529   -2.74702036953516
O           0.37299312117044    1.47506006548499   -0.38677659365912
O          -0.27349470564156   -0.62226161339693   -1.43254920366835
O           0.60002962475540   -1.04997692132311    2.13346874030670
H           0.74589551861356   -1.65479409049263    2.86163977688252
O           2.58869545174426    0.30750821662441    0.78323479333309
H           1.98494815387928   -0.25945792964813    1.30102825424779
H           2.09442965860510    1.12872707934428    0.66022447025458
O          -3.01357081136294    0.26046898086998    0.37414268563886
H          -3.89686741518166    0.63253016022978    0.36231565129010
H          -2.56732267920684    0.60984794087537   -0.44077783688341
O          -0.93668266316554    1.23105395140035    1.80962633225546
H          -0.19749261876768    1.46009816850822    0.44390756814843
H          -1.78517929556337    0.88168785544295    1.47317141137064
H          -0.42941153274748    0.47160377874804    2.14329486248634
O          -1.31071109408011   -1.94157306003521    0.59475385601839
H          -2.12139442715791   -1.42936001518727    0.72024014142226
H          -0.09410110195138   -1.47172781402802    1.55070307015486
H          -0.95008824584726   -1.58978111853597   -0.24678286194093
N           2.21570276076761   -0.38361456904033   -1.74642221799269
H           2.87503489177791   -0.94722929020784   -2.27182334511558
H           2.55710095466785   -0.12699817902233   -0.77515038286667
H           1.87773150734130    0.46653285004367   -2.27111653857073
H           1.25419506019264   -0.83106767905827   -1.61024608181210
