    26
        -50.46584230  Gyration_radius:  2.3985390811 Dipole_moment: 4.273
 S           0.97970565439498    0.89530468600730   -1.32886870402003
O           0.80729475223442    1.03617620892155   -2.75783645315961
O           1.13986243250952   -0.53158103530260   -0.96337680935244
O           1.98190479849756    1.71359255179548   -0.69363001484851
O          -0.43320091723622    1.31004180904018   -0.75211956520284
O          -1.39849665309566   -1.15781594096337    1.64971346275044
H          -1.77146771997397   -1.77163933861734    2.28332875925962
O           2.17304421108487    1.09573519689871    1.83378886837835
H           2.80900325721015    1.69856762054158    2.22235844373169
H           2.17287554851744    1.30010491941553    0.86244030081603
O          -2.58676439594772   -0.42315549591068   -0.73153408823855
H          -2.24914021388299   -0.79430270110895    0.10654060552322
H          -2.30919582268458    0.50223954517423   -0.70910845282287
O          -0.50745587109640    1.45885012824460    1.81117254802923
H           0.44126672717637    1.35838345529754    2.02327014563594
H          -0.41853682102064    1.46160621090613    0.24426447335385
H          -0.92250931024967    0.59033465283442    1.94875431871118
O           1.18503893971651   -1.49255073519157    1.48634531638939
H          -0.42450012394835   -1.37390202292373    1.58655149760334
H           1.65361899389077   -0.77260767204069    1.93057134950536
H           1.26806042794747   -1.26276053332172    0.53643380191853
N          -0.75571182023929   -1.00341310041328   -2.55541983640663
H          -1.61722094169702   -0.84505673556584   -1.95675759073142
H          -0.87268540068063   -1.73421016560156   -3.24870072130529
H          -0.39599517688359   -0.09710852407838   -2.95679346473659
H           0.05120545548451   -1.16083300406513   -1.87138819074841
