    26
        -50.46428343  Gyration_radius:  2.66507234155 Dipole_moment: 4.529
 S          -0.00012159037158    0.73685025685752    0.37932935250013
O          -0.47356013149531    1.98241768968987   -0.19091401713797
O           0.72168666705165    1.04746283825809    1.70415911382362
O          -1.11442434861904   -0.17003329213042    0.65470778939835
O           0.97036111114170    0.07909192308353   -0.51939366036771
O           1.27184295852087   -2.92482005839751    2.59048836728214
H           1.54022753099106   -3.02857383451111    3.50500424047093
O           0.21001930833260    3.01075906674160   -2.50192907878306
H           1.06452638598746    3.43274361649611   -2.39947757733446
H          -0.08232394081873    2.77464584571490   -1.58821425253943
O          -2.51969378915618    0.41049993019575   -1.47514233555344
H          -2.69428456941644    1.34251102495645   -1.31571462651005
H          -2.10862019811159    0.09608874501690   -0.63469875792471
O           2.47411102912852   -0.78605973013539    1.53077825529012
H           2.10403446524575   -1.62399088456599    1.89779303259080
H           2.23152919917728   -0.76809911467929    0.59315556856458
H           1.45978812281168    0.36092141880364    1.78647995543634
O          -1.18753487325129   -1.88656766359252    2.65128164345538
H           0.34752436990984   -2.58547561648301    2.61758834377499
H          -1.15252003607618   -1.18517347163360    1.96355369611233
H          -1.92450740938465   -2.44901658438131    2.40651971133109
N          -0.22311838935580    0.40784256042643   -2.77560202208327
H           0.36617841963351    0.16080916144103   -1.91262350668024
H          -0.03911677616048   -0.19640799982627   -3.56853943348439
H          -1.22596091879998    0.34469249962333   -2.43143394415310
H          -0.01604256691235    1.41688168303164   -2.96715584748530
