    26
        -50.45895650  Gyration_radius:  2.39163484941 Dipole_moment: 7.106
 S           0.68733078914540   -1.27752536583448   -0.63920751508343
O           1.54308909876497   -1.61323971983826    0.48487742017645
O           0.67169439853317   -2.22056411992126   -1.72419652064418
O          -0.67513619704377   -0.98087261920692   -0.14398210225546
O           1.20514294137696    0.06106567963854   -1.26730998691636
O          -1.37296500136432    1.08176189551772    1.83647202343425
H          -1.46639364340707    1.47827620386771    2.70463420942902
O          -0.69737265468676   -0.77125831697265   -3.42384780273256
H          -1.27074552827663   -1.41874370903736   -3.83886864636357
H          -0.08823899476408   -1.29568499396552   -2.84544658169876
O           2.37698289276486    0.52508550847660    1.90694643651843
H           1.99023895482099    0.25676244219359    2.74455152605276
H           2.29675871987181   -0.26165578917628    1.33376753843429
O          -0.09259310145400   -1.19200620938844    2.55234737144784
H          -0.73422606283927   -1.90403391636643    2.54311403247590
H           0.51174798146279   -1.38884677123076    1.80343268322166
H          -0.98139411051049    0.19065102099435    1.98970718789764
O           0.69812904079560    1.96025596233938    0.39754537835633
H           1.43530964246193    1.70894887003295    0.99339644633622
H           1.08507135944662    0.81526443596149   -0.61889092323042
H          -0.11255317498973    1.71180728273433    0.89869463675436
N          -1.42906644178991    0.95164946678683   -1.55017861075368
H          -2.39117862181460    1.26689714903936   -1.48991431901870
H          -1.20690568613296    0.46147565680421   -2.45588229251046
H          -0.77655238851461    1.71392319629435   -1.37280545623596
H          -1.20617422182421    0.14060675037015   -0.81895612312754
