    26
        -50.45895646  Gyration_radius:  2.39161300397 Dipole_moment: 7.112
 S           0.70950726433991    1.31516293972692   -0.52996019290603
O           0.90503688545087    2.19282742097315   -1.65174561704104
O          -0.70096664304863    0.88627704701470   -0.40229544253117
O           1.51196412587685    0.01631049124192   -0.88132221901964
O           1.17874700639666    1.80637478763257    0.75334514762442
O          -1.71880563988847   -1.14132823890554    1.47268216042891
H          -2.01353741262464   -1.50125232957978    2.31127670768505
O           0.21614437309951    0.50773428464832   -3.53521030849949
H           0.58432652828148    1.12912033865614   -2.85764464163444
H          -0.28016658219196    1.06115375798089   -4.14153518996310
O           1.78788254132597   -0.14233331471512    2.51995945356599
H           1.79476854936796    0.59897763219388    1.88399684616081
H           1.15599789890854    0.12088173756930    3.19421196385922
O           0.75037511139344   -1.84089829238279    0.73282473207709
H           1.29046766976406   -0.71254574980833   -0.23052555321525
H           1.26191706425404   -1.47347964499038    1.48453944970943
H          -0.18891697433209   -1.66514038916162    0.97111651103696
O          -0.92032227745292    1.30021099852260    2.32413210105272
H          -0.15359229221956    1.52890554681675    1.75431137939561
H          -1.60110995044439    1.93055942862934    2.08346352668564
H          -1.47545827597226   -0.20394061308073    1.65408210202224
N          -0.83675396850574   -1.19095987202546   -1.79774103649504
H          -0.41949414241985   -0.72470770694073   -2.64544506007490
H          -0.90845320547739   -0.32312083234020   -1.10223292699712
H          -1.74140809218432   -1.61330728951875   -1.97635770225007
H          -0.18814955169797   -1.86148214816293   -1.38792619067817
