    26
        -50.45895651  Gyration_radius:  2.3916674683 Dipole_moment: 7.103
 S          -1.52736192845259   -0.36547498383562    0.21652634444505
O          -2.05483797381053    0.33670309488958   -0.93987777350929
O          -0.68360510868460   -1.58369521503745   -0.29204026422071
O          -0.56873965174647    0.51148753773060    0.92469144197931
O          -2.50134059955240   -0.93005069926685    1.11059757677268
O           1.84338807366094    1.72367355545657   -0.25038972731189
H           2.35836823971348    2.34713612976388   -0.76590461480825
O          -0.84393204945621   -2.29760551904499    2.60932984290025
H          -1.50123571372936   -1.88041727389800    1.99732731691659
H          -1.20732838839864   -2.17853048320206    3.48908399016718
O          -0.36329848090623    0.41287083620136   -3.04258761546999
H          -0.30093985042997    1.36993740218272   -3.09920358035277
H          -1.09728987392322    0.24866113322534   -2.41939305846136
O          -0.63588964157238    2.59798195373926   -0.89072750231198
H          -0.96429555503939    3.11062882393779   -0.15037921498797
H           0.90442229557875    2.00599321738765   -0.34837725949329
H          -1.19393177832590    1.78977879840345   -0.90367918397849
O           1.45232870205275   -0.65732081677291   -1.39483849586869
H           0.12531798316425   -1.26031127305371   -0.78672280469762
H           0.97764134194864   -0.37825960278064   -2.20623770017977
H           1.67989751092106    0.18893601785450   -0.94526606831326
N           1.27036858479916   -1.03760224521930    1.63098194626907
H           1.99806601162729   -0.69806346832602    2.25054977592103
H           0.60927371540459   -1.71357732142345    2.09550097177887
H           0.56171596350936   -0.23056515030035    1.33337301433095
H           1.66323817163714   -1.43231442859488    0.77766263247909
