    26
        -50.45895652  Gyration_radius:  2.39201472104 Dipole_moment: 7.102
 S           1.04936834197214    0.21155363158666   -1.16776684915291
O           1.27921613207761    1.19283267875867    0.03158018557849
O           0.15233445122985    0.85138589948111   -2.11353424899189
O           2.36514677505280   -0.09897108964452   -1.65701828489523
O           0.38109954993609   -0.97387723726647   -0.58632905521754
O          -2.18380521374345   -0.96338301456450    0.85971040687855
H          -3.13602384954894   -0.93987674012654    0.97104646079128
O           3.43142972146742   -0.80126005573951    0.63018465582659
H           3.08925937273379   -0.43972465661008   -0.22594327373512
H           3.97852761825999   -1.55067937196124    0.38675713940919
O          -1.78283198033203    2.33853863168724   -0.95895542769611
H          -2.52675397849606    1.85180609792870   -1.32345662016756
H          -1.00537683823221    2.00498939267309   -1.44714213273675
O          -0.91943299178475    1.33378829953363    1.36520954480325
H          -1.38385433084688    0.47029134207875    1.27121510335582
H           0.42432435535406    1.32483051532216    0.53738705587773
H          -1.35029071574811    1.91184387425363    0.70052061170852
O          -2.06771969772870   -0.60211557408328   -1.81952379044851
H          -1.89197657289315   -1.45441487565577   -2.22130651223271
H          -2.02646472661558   -0.91989178658201   -0.11198589548886
H          -1.24912833170156   -0.08029265105525   -1.96942508124008
N           1.07086457112653   -0.94249063218782    1.82269705270724
H           0.64060837435379   -1.04795271369174    0.79973648503862
H           0.84211067456033   -1.73193263019126    2.41694438672042
H           2.09721975999847   -0.87592249326010    1.59457614411710
H           0.72214954955592   -0.06907487066360    2.21482196921979
