    26
        -50.45244920  Gyration_radius:  2.65750280738 Dipole_moment: 6.217
 S          -1.26434777521783   -0.26523185991192    0.14242900040436
O          -0.80156108215777   -1.15607835387691   -1.07337653975128
O          -0.09082930908678   -0.26667119944996    1.05282213123741
O          -1.56006273373033    1.06211074613006   -0.34672795512165
O          -2.37182390006721   -0.96418584169578    0.75023036528422
O           1.72926218822708    3.42132776795535   -0.16224141017066
H           1.26849367691015    4.12214062651318   -0.62660321068242
O          -1.91100841108333   -3.35372694725239    1.61582621788942
H          -2.21091110997227   -2.48361702149534    1.23252949903913
H          -2.20207929568394   -3.34037862476661    2.52963966404169
O           2.29492534483473    1.24980217293761   -1.60689167862395
H           3.00949219668772    1.50959981564002   -2.19039239308821
H           2.13073664916717    2.02344577901121   -1.01763283172651
O          -0.14496312552102    0.76518965373266   -2.60004895834784
H           0.77989314848160    0.93098690640748   -2.30625982154487
H          -0.53024016482031   -0.50705676896968   -1.79964064475043
H          -0.71380074569029    1.26703613246800   -1.99419648313692
O          -0.13312582189695    2.43171606019692    1.45089155922149
H           1.09648296459324    3.09850470051707    0.52599282763412
H          -0.81053404876250    2.18751717430822    0.79513563745608
H           0.19921060194859    1.57008058116918    1.73318484419204
N           0.48560495793083   -2.69763524745727    0.78525752209381
H           1.34791713917902   -3.07484705651554    1.16373222467974
H           0.34757625747988   -1.60751300372358    0.98272656260377
H           0.44382301540009   -2.77888455815647   -0.23026425138002
H          -0.38813058685340   -3.14363162376006    1.19387812249201
