    26
        -50.45244910  Gyration_radius:  2.65763008129 Dipole_moment: 6.212
 S           0.85785390735565    0.36126531756738   -0.90406949164382
O           0.91439212645797   -1.21450974757001   -0.90538189563318
O          -0.24926320152480    0.78184308004220   -1.73232576842023
O           0.64022433673644    0.70905455642019    0.52335169826867
O           2.16119371104315    0.80762833121117   -1.33612671373009
O          -3.62279551991290    1.17398567503310    0.47250257726721
H          -4.13587381096086    1.32872137051460   -0.32234231525990
O          -2.67099602822599   -1.30184527736743    0.76962485921947
H          -3.42875641344096   -1.84130418553235    1.00063977279768
H          -3.00034002561496   -0.37300035129355    0.73185961734711
O           4.18363825760121    0.06508245124526    0.08895085371284
H           4.64096027526591    0.88034047421020    0.30389308637257
H           3.48458751521924    0.32345395145229   -0.57322381257966
O          -1.36274123823527    2.48512440450546    0.00055264406800
H          -0.72352426926645    2.13821126727667    0.63592304406280
H          -1.08828771681610    2.05075651709388   -0.82676089212100
H          -2.81456243392433    1.73670314944000    0.37981942740143
O          -1.49484932119170   -1.58521305810498   -1.62050449802591
H          -1.95606943226210   -1.55295311534866   -0.75144464203220
H          -1.41038228576587   -0.66375444676621   -1.91433819946341
H           0.00068574051547   -1.52041969033138   -1.21198148539597
N           2.22923057607033   -0.98483872983662    1.48243084424504
H           2.26506323008112   -1.16175794363989    2.48069952889249
H           3.14682695155404   -0.62989722223490    1.08097189046194
H           1.94525530442232   -1.81054417081552    0.95581246806987
H           1.48852975875239   -0.20213262105527    1.19146741161306
