    26
        -50.45244920  Gyration_radius:  2.65742327199 Dipole_moment: 6.219
 S          -1.16007492457753   -0.50123352761774    0.30348634132458
O          -2.46544285847272   -1.01941332803596   -0.03125931804615
O          -0.65632832009855    0.37265819047335   -0.78667702452881
O          -1.05864487462371    0.14118214423021    1.59410103604935
O          -0.18148786337448   -1.73732113652161    0.28065421143250
O           1.77539349551578    3.03650549423108    1.53288650209086
H           1.68163368521912    3.16463773567057    2.47829620417196
O           2.87642042375835    0.72388666993254    0.78285019604566
H           3.80784889391078    0.80348818090178    0.99422049689614
H           2.47584852230420    1.60170886480173    0.98702793912585
O          -2.69932220056999   -2.20684069962016   -2.31325257699871
H          -3.43185985086538   -1.76194373814867   -2.74387452397630
H          -2.68913973302848   -1.85312749400302   -1.38121711486783
O          -0.72189658245611    2.64471994824736    0.72121839240115
H           0.85286346062881    2.99381409438656    1.17838089329584
H          -0.65034702727374    2.24883265403595   -0.15671718222612
H          -0.95989695676823    1.87931232681316    1.27440800183334
O           1.31618026884231   -0.94988163347920    2.17527939251259
H           0.54735518211275   -0.39157357461204    2.37456630002692
H           0.47842645446886   -1.57694948901064    1.02981057497621
H           1.95063149309751   -0.37653971818045    1.68749071336944
N          -0.19122003865419   -1.46044002523793   -2.44113734517463
H           0.30949054330180   -2.11644539640546   -1.84226183477469
H          -0.33946694157261   -0.55776968108849   -1.80124895750020
H           0.30896349321100   -1.27168273526934   -3.30329093411507
H          -1.17592772460311   -1.82958412556256   -2.59374039352037
