    26
        -50.45244924  Gyration_radius:  2.65727462982 Dipole_moment: 6.220
 S          -0.79774763953100   -0.98197277181541   -0.30107927283389
O          -2.10413526612934   -1.57224917918182   -0.47259682569481
O          -0.43360076553115   -0.32008477472039   -1.68510193079970
O          -0.86957076549761    0.16785935358471    0.63631780482305
O           0.25728104066875   -1.90119220193646    0.06019452462166
O           3.08747366535962   -0.03064363057484    2.27729973643270
H           3.64438085080571   -0.81050076220920    2.24855677097410
O           2.79041629216425    1.26987350110610   -0.03432462896350
H           2.86566949841745    0.84872298346958    0.85428925107962
H           3.62562948702424    1.71434191586247   -0.18726723655715
O          -4.02242538064823    0.01935602989524   -1.14984098848742
H          -3.33722046807198   -0.68519786490011   -0.98229318895346
H          -4.70531864380505   -0.13188334024342   -0.49352958202004
O           2.06021174114613   -0.79258310420782   -1.57963852921882
H           1.77444563709673   -1.44734487376307   -0.92227324432533
H           0.56055823309895   -0.46198763001575   -1.80240439123028
H           2.37679238470666   -0.01311810517334   -1.06847457023221
O           0.64583331706367   -1.03577047205687    2.55907425596886
H           0.04180032009063   -0.31941249319519    2.32563785692659
H           0.60655140887960   -1.60498448080042    1.76979315876924
H           2.17972821879637   -0.36098056898419    2.48960545855931
N          -2.06151888893016    1.74127514705627   -0.91832680799700
H          -1.52406639158371    1.15161864253807   -0.13733590036257
H          -2.97853049500510    1.21950389997371   -1.04561586494911
H          -2.18181791093578    2.71991653819752   -0.67978247250098
H          -1.50081947952024    1.61743824198686   -1.76088338297281
