    26
        -50.46212361  Gyration_radius:  2.38597623526 Dipole_moment: 6.903
 S          -0.74924146400033   -0.92788043415670   -0.79439992394398
O          -0.79615162332905    0.55788564406530   -1.28328173159859
O           0.41599242076156   -1.00617422568916    0.10089069632550
O          -1.96766128150272   -1.26965416697077   -0.11918194391794
O          -0.50829334501033   -1.67570236058278   -2.03170004665562
O           1.39903628172386    0.64844856732037    2.30338075313458
H           1.82706854348322    0.04993379519406    1.68415223871965
O          -2.42511086940588    0.50517211888001    1.85693799192847
H          -2.51676016232143   -0.08962483541582    1.08962450511431
H          -1.89730224029933   -0.01439878717406    2.48290573962638
O           2.07409217467932    0.68741155314359   -0.93889431366556
H           1.52331425180774   -0.00223571792582   -0.48421632090963
H           1.77552561055229    1.52948689817645   -0.58256058202882
O          -0.46591809519858    1.92867284922316    0.81091316477206
H          -0.69331673172117    1.16102108664187   -0.46024387341154
H          -1.28711426394666    1.62713753799009    1.27209256644888
H           0.26633693733821    1.57236423091068    1.36198356421702
O          -0.52291651410264   -1.38778186731335    2.58219613580680
H          -1.04604214276114   -2.18905472349274    2.63439540474274
H          -0.22220596507164   -1.33122451918869    1.65105195483600
H           0.80496225397823    0.08870255628746    2.81977871028488
N           1.02493143129055   -0.08054971602380   -3.22943316151625
H           1.64779988596129   -0.49193974827975   -3.91721256165873
H           0.43726996475342    0.63756898218957   -3.64278636083825
H           0.34588407546325   -0.85052196522859   -2.76795964863371
H           1.55582087635047    0.32293722749368   -2.39843293699769
