    26
        -50.46378404  Gyration_radius:  2.40571425134 Dipole_moment: 6.533
 S          -0.47860883452384   -0.66817448094847   -1.10471007580315
O          -1.31041755664551    0.56820044087194   -0.64874926537800
O          -0.36008190886513   -0.47909110693794   -2.55185728289652
O           0.84200138846424   -0.52075868310763   -0.45816870648067
O          -1.12552510833778   -1.88481416321414   -0.70927383371885
O           1.18395294716081    0.63083211549496    1.95985436376173
H           1.12397476654092    0.19100358381392    1.08982505525297
O           1.68552367184539    1.93296373228803   -0.85250597225990
H           1.52496232115848    0.96290647870366   -0.77847608212766
H           1.63943267470787    2.25955912217391    0.05102511520127
O          -1.45307453099016   -2.11743146614111    1.94213252254080
H          -0.51174771586296   -2.31583404675061    2.08419640908501
H          -1.55967704213290   -2.19268896322248    0.97568775857106
O          -1.51769962354051    0.50442580256186    1.84963098164741
H          -1.46099674017122    0.54361202406487    0.37922759186952
H          -1.63129462501173   -0.46600614451942    2.03150760122169
H          -0.59538867715464    0.71035837681110    2.10151934390456
O           1.23629817718294   -2.42691882716344    1.41662716730264
H           1.12259049135717   -1.82731730868101    0.65445148017667
H           1.54995575907923   -0.03483992675183    2.54713894894202
H           1.31662778176287   -3.30701702387345    1.04623438060432
N          -0.25003010449472    2.02990043920295   -2.63055614804720
H          -0.08404951981615    2.46844116033564   -3.53056184303388
H           0.54511442220756    2.19461419642631   -1.94897468965810
H          -1.12640874754749    2.33378840536077   -2.21338781460460
H          -0.30543367638867    0.91028624319922   -2.70183701607271
