    26
        -50.46378412  Gyration_radius:  2.4056902598 Dipole_moment: 6.531
 S          -1.27312168428112   -0.23044623402749   -0.47551524978906
O          -2.60065149139588    0.29665275122304   -0.15328937591461
O          -0.29523869264900    0.87247593128890   -0.58148805341104
O          -0.87929100683647   -1.01951908469428    0.80925125359561
O          -1.22934964392332   -1.08507529605898   -1.62561534127615
O           2.26348684857079    0.66497741019848    0.25421272389942
H           1.35513089252900    0.79598792190234   -0.08032676974783
O           1.19199177237914   -2.14106388790878   -2.08777546529026
H           0.22964635910402   -1.98885113200831   -2.04595072966568
H           1.54187027931463   -1.29987979010514   -2.42795971775852
O          -0.11624459741308    2.05344831657474    1.75549420133140
H          -0.22105253176922    1.77493987809328    0.81546551181161
H           0.78179094229088    1.79962662156678    1.98845635460351
O           1.44871557074503   -1.90356656100172    0.51299033303440
H           1.45977875668963   -2.16300278586274   -0.44633671796348
H           1.95471613841512   -1.06813958225090    0.56273940196760
H           0.06209693448017   -1.44550030963850    0.69790662803268
O           1.33799543829538    0.54164569869266   -2.70872603626257
H           0.66173453319771    0.70245732189324   -2.02300044140356
H           2.82790124607396    0.78628563613624   -0.51304661780499
H           0.88385673748506    0.62774246780794   -3.54810157276387
N          -2.29709724458307    0.69164094113277    2.30948531139553
H          -1.41985373908337    1.28655261795610    2.28832316777162
H          -2.53590688513614    0.53866507707043    1.22261430383110
H          -2.07786686938213   -0.22746613078926    2.68583896483296
H          -3.05503805314962    1.13941222285794    2.81435391295551
