    26
        -50.46212432  Gyration_radius:  2.38565860329 Dipole_moment: 6.920
 S          -0.60573079809411    0.51070730005971    1.20150019622388
O          -1.38424469179925   -0.65681726657204    0.50897465380123
O          -1.24349965859734    1.76628634689314    0.92955622255254
O          -0.60901945569833    0.11850750104788    2.61365355742889
O           0.75553625568876    0.45399599739298    0.64544676178080
O           1.83964747928403    0.18403276243118   -2.06648429261750
H           2.19395317112750   -0.05174964750448   -1.20434291160135
O           1.12516532386001   -2.07294069974997    0.23379328982817
H           0.69702206745308   -2.21967866135864   -0.61497037689330
H           1.09142828696460   -1.09131983022925    0.38051021754500
O          -1.50428733814662    2.07234446719025   -1.73520593622735
H          -0.62228765093226    2.46904383374516   -1.80665994570287
H          -1.66220756690722    2.04074737767056   -0.77339253303609
O           1.08575779764612    2.62429951923033   -0.88772095504225
H           0.96910618198038    3.42856133885526   -0.37974412659174
H           0.95064246272287    1.89020661779712   -0.25219677839487
H           1.74684192390162    1.14532567865343   -2.04407778929743
O          -0.78965775781539   -0.45892398171697   -1.93693783630388
H           0.17476872944552   -0.31482607508744   -2.06403487716941
H          -1.19718646195398   -0.60372894790644   -0.49786091337554
H          -1.18983427540442    0.43474171865005   -2.07576975968971
N          -0.36444974164841   -2.37530633836405    2.38466268891257
H          -1.28605186049195   -2.74141240845689    2.16428861194466
H           0.25719431406747   -2.42151859917378    1.52025834811530
H          -0.47563957795258   -1.27258738404009    2.57963217475566
H           0.04703285136963   -2.85799057942133    3.17712230899234
