    26
        -50.45871481  Gyration_radius:  2.56118166466 Dipole_moment: 5.904
 S          -0.17428423141650    0.64780728457631   -0.90237619437750
O          -0.57862840051569   -0.46879973708752    0.11870125386235
O           0.79117370719875    0.02108532292026   -1.81745714378299
O          -1.41617922767171    0.96781363052850   -1.60099582453889
O           0.38996908530650    1.75144521099575   -0.16151806608846
O           0.83713859444235    0.63095768660542    3.57728627348118
H           0.24578188892611    0.19870086842342    4.19529298034614
O           2.85362836117367    0.51643137715214   -0.17813797856598
H           2.30343723704155    0.24491900839869   -0.93473899405453
H           2.48341526566010    1.37056457886714    0.07213208851126
O          -1.86566644654194   -2.59156123722973   -0.94371489081560
H          -1.37702106009294   -1.91151208344047   -0.43495676408070
H          -2.72921269100470   -2.66118436776421   -0.53309930590484
O          -0.65082852078627    2.36335458529304    2.17943793468347
H          -0.45811142937539    3.29735857531069    2.28039076237029
H          -0.34217464088844    2.12635381429432    1.27667657860652
H           0.29361731309643    1.30292069037814    3.10554150619833
O           1.42285464891837   -0.95429146952628    1.51355790007539
H           0.25676829526884   -0.70616718782684    0.72827386249835
H           2.12692131287484   -0.50860241593402    0.98427366221080
H           1.30324450040124   -0.40613238529861    2.32637793668917
N          -1.16398991622007   -1.08464713544064   -3.02593852036400
H          -1.34134419373068   -1.19399349867388   -4.01788850820482
H          -1.54332282609611   -0.17022007612172   -2.58116281115342
H          -1.51565611286985   -1.87540179550971   -2.44282817038089
H          -0.15153051311058   -0.90719923390226   -2.78312958720752
