    26
        -50.45871486  Gyration_radius:  2.5611125808 Dipole_moment: 5.902
 S           0.25903434370466    0.73531917627468   -0.81061787356969
O          -0.73051633291039    0.09458279494193   -1.64458572135166
O           1.62784661340784    0.28004363357343   -1.09578440490923
O           0.18890685877671    2.19402502520280   -0.81068576265284
O          -0.02182314589707    0.33217605059817    0.67648818642900
O          -2.77529188439136   -2.42144610467977    0.57445646159769
H          -3.19920469177706   -2.32987206505981    1.42903262040168
O           1.54068357351444    1.54510633102104    2.51476436453188
H           0.97880399951377    2.03991825468342    3.11356769656787
H           0.93868412943678    1.00611408847534    1.96056915397750
O           0.80609764268333   -2.19207636061074   -1.72822611170390
H           1.34461032307248   -1.39469156541630   -1.57644036922184
H           0.01240367653269   -1.84814516812358   -2.15364332545163
O          -3.19329502673248   -0.12455945968879   -0.73670384037556
H          -2.27414756889731    0.03709109768663   -1.04565437443486
H          -3.72976979088220   -0.15729722412019   -1.53092676513453
H          -2.97928117290826   -1.59487034309550    0.07978923962937
O          -0.12819404500907   -2.15152845094387    0.76129918418577
H          -1.09059067081867   -2.36524276852106    0.70093921156914
H           0.25867468331817   -2.38122718060855   -0.11734282039739
H          -0.06734966080327   -0.72519122315875    0.75077689823834
N           2.50337733993808    2.32312530884581    0.15518413194743
H           2.38887746912876    2.16427514072535    1.18011508290943
H           3.25442929473492    2.96149690417728   -0.08097696115241
H           2.56136067789822    1.38656543853434   -0.32966293851823
H           1.52567336531912    2.58630866925771   -0.23573096313097
