    26
        -50.45787214  Gyration_radius:  2.57073345993 Dipole_moment: 7.863
 S           0.05633649292172    1.10839538209092   -0.12190336672721
O          -0.79967823828362    0.05231727353366   -0.65367780235627
O          -0.58352203739110    2.41923688560845   -0.27691373823590
O           0.08857306558361    0.88807087143152    1.43536237489606
O           1.40660114036515    1.04987213336429   -0.62516525689213
O           1.75709878929863   -2.77179078702105    0.53718584022987
H           1.18375689933459   -3.37110754979240    1.01594631008808
O           2.20540572246730   -0.35816688663096   -2.78973430087953
H           3.14787712010073   -0.47017912140747   -2.65323849680507
H           1.89953396842396    0.24851461766931   -2.08945553086401
O          -3.23229553896490   -0.03564185896005    0.22934310730685
H          -2.30392577543211   -0.12994729913246   -0.11386960625277
H          -3.79424594108702   -0.04611804660524   -0.54776543038194
O           2.28278500190418   -0.36024848018826    1.50016606546339
H           0.93748754134432    0.35422932560272    1.60257252061036
H           2.14477999063786   -1.30152665586790    1.22745649737500
H           2.48475073181081    0.11532793610711    0.68166910435103
O           0.45125177069964   -2.12690431319991   -1.65374286493865
H          -0.10411089676021   -1.39773880240140   -1.32484987894708
H           1.08155611096657   -1.69043276505321   -2.25473687140830
H           1.29885242534391   -2.58845612981311   -0.32631459349101
N          -2.35682514233656    2.10509043653321    1.47155654897738
H          -1.61017639491855    2.36706457893968    0.67728358957209
H          -2.90192109593125    1.29390828287791    1.05963598115787
H          -1.79373289705742    1.76175622702570    2.24842996328854
H          -2.94621282299461    2.88447476529252    1.74475982481429
