    26
        -50.45940114  Gyration_radius:  2.5406843906 Dipole_moment: 6.851
 S          -0.02700668182435   -0.11786933726094   -1.06198940159016
O           1.35656971515158   -0.52137780499544   -1.12041807801007
O          -0.81652106197817   -1.07862127354350   -0.12375146018088
O          -0.19459354579594    1.22846794107866   -0.50686157187227
O          -0.73043411198611   -0.23735414107381   -2.34566321921677
O           1.92027308515334    0.70291936531081    2.51500686561543
H           1.45586066833201    1.38647545718942    2.99962706015712
O          -2.65406072579752    2.00171247493224   -0.29105090482472
H          -1.68949665153689    1.75617469535566   -0.27265274851540
H          -2.69475262523079    2.84385041094295   -0.74792735996103
O           2.49549851124405   -2.46585855417690    0.31115804632083
H           2.10877232763466   -1.84144425139445   -0.33592367423297
H           3.36415040521885   -2.12082051496187    0.52716240788488
O           2.33868943149388    1.73964434739578    0.09643097443907
H           2.65783838042816    1.01549557608565   -0.45290788837954
H           1.38430104505868    1.76372959389593   -0.11007726426591
H           2.17563170352237    1.10839377000436    1.65162990629798
O           0.56584944992708   -1.52611070655961    1.91876775274778
H           1.26690612129382   -2.06971774195058    1.49918785699219
H           1.02538322690570   -0.70487555563083    2.21126178703268
H          -0.27161775433730   -1.25077217276598    0.74381710774148
N          -3.06019900278919   -0.33516841724465   -1.42948162197951
H          -2.06545402206485   -0.31896958548007   -1.95762783666359
H          -2.94475275394964   -1.03399425374756   -0.69655948549117
H          -3.12342536820562    0.62170120951121   -0.98236204920396
H          -3.84340974581438   -0.54561051088236   -2.03879521083380
