    26
        -50.45787216  Gyration_radius:  2.57065624321 Dipole_moment: 7.861
 S          -0.65449442735464   -0.86683436591025   -0.25672033035474
O          -0.89732562854106   -1.17816178774904    1.13032937194939
O          -1.51086126635861    0.39336090487834   -0.64813864038916
O           0.73288000591008   -0.50251847209833   -0.52770246451742
O          -1.10852702850378   -1.90256647640627   -1.19102070277617
O           0.64871147810215    2.33998901671983    2.27151102318207
H           0.98189058439376    3.10003876599333    1.79363441999253
O           1.01348919444527   -1.72263997732377    2.96296131057713
H           0.31998852530008   -1.65265121188711    2.28018061950222
H           0.58177090423059   -1.54743516816122    3.80097377182369
O           1.30905223684261    0.17893341073218   -2.95836875498294
H           2.05503256030668   -0.36665889592995   -3.21464086051708
H           1.17436658805965    0.00471052086165   -1.98877290961566
O          -1.72874699893446    1.32601653880896    1.68867524186951
H          -1.65251213330271    0.89053676461050    0.22721490196096
H          -1.60494539068529    0.41095733527752    1.97886223191859
H          -0.89571506051097    1.79523006768231    1.94413749793517
O           2.19888482138214    0.32713180318259    1.58788164786088
H           2.02160106612801   -0.40534962995161    2.20509824701117
H           1.77245816923727    0.04512270255894    0.75906878229897
H           1.27964997676160    1.59667727240258    2.07502201795632
N          -1.22591941797215   -0.44672382935933   -3.23229902318823
H          -1.74696753110868    0.34808202426055   -2.86452320893674
H          -1.22247769471947   -1.19247132284773   -2.39513354323152
H          -1.63333814537516   -0.80411013068657   -4.09006048836766
H          -0.20794538764967   -0.16866584967740   -3.33817016895112
