    26
        -50.45688577  Gyration_radius:  2.539584642 Dipole_moment: 5.611
 S          -0.52620232029058   -0.23373536924807   -0.85403780181104
O           0.09207083850108   -1.56270842436591   -0.96509203387834
O          -1.84260064555412   -0.33713828404363   -0.08003684493748
O           0.36907123170568    0.67318425948451   -0.13380079149209
O          -0.84479435470647    0.29064656133855   -2.18090225152168
O          -1.17210501834506    1.42146903799906    3.31529961716325
H          -1.93831498399640    1.72058307222965    3.80732573804697
O           0.87809953731554   -2.25941719825578    1.46673094960932
H           0.67373116526971   -1.98523580259335    0.54675867447483
H           0.77727303849858   -3.21311767243644    1.48778707582942
O           2.61480832103449    0.99501675422641   -1.43697116895930
H           1.85053662066862    0.87361745536654   -0.81867053555784
H           2.73291533479862    1.94353127721717   -1.51465580344452
O          -1.40796299649921    2.39153918073776    0.81803125856777
H          -0.65085822216323    1.88001747363016    0.46659366774684
H          -2.18273727291984    1.96794101050479    0.43856887054327
H          -1.19252788366455    1.89571164698204    2.45333758312579
O          -1.35436635806788   -1.02637842792056    2.26685640522148
H          -1.67512559706725   -0.65646138796509    0.91568909324326
H          -0.46944791038171   -1.44352116115779    2.16840877896016
H          -1.21645125043439   -0.17365052826901    2.74439962357330
N           1.33460705378829   -0.64649415285073   -3.03988493071253
H           1.13380693898650   -1.38922209790838   -2.33188028808930
H           2.03989049142265    0.00671109110142   -2.60327646001949
H           1.59392207649477   -0.99652163153516   -3.95559858514500
H           0.38276216556820   -0.13636666229070   -2.98097983053405
