    26
        -50.45688577  Gyration_radius:  2.53981322472 Dipole_moment: 5.615
 S          -0.76172480061532    0.46384817432600   -0.51217831027840
O          -0.20059714377310   -0.75189861958838    0.07914872275163
O          -2.08312888649974    0.20647948809615   -1.08207655033891
O          -0.94115203670644    1.50719393782902    0.59314835274709
O           0.14718328550758    0.98331345620345   -1.54414828188500
O           0.88485652061824    0.04628965456160    3.68819212265740
H           0.63647839223333    0.39990202671033    4.54369531382239
O           2.55843142924892    1.12845956835760   -0.45704813143784
H           1.69404341214822    1.00174124448555   -0.90433938008498
H           2.96938511591475    1.88330936220930   -0.88296857544902
O           0.04838937201311   -2.63235433982435   -1.72309730349367
H           0.08650772650293   -1.97054597749591   -0.98715240012415
H          -0.38627996821568   -3.40264089862394   -1.35249356431413
O           1.23978839063406    1.84943021464521    1.75332993778924
H           1.87544166644169    1.52984084421088    1.07467073568316
H          -0.02520001215498    1.69939473645090    1.08927387232926
H           1.23388968323956    1.17846827786107    2.47744225235291
O          -1.38623732585688   -0.68438965122969    2.44698680588303
H           0.06972271903619   -0.34828224420140    3.30317298854184
H          -1.88094340366519    0.12591497197999    2.29739603948137
H          -0.94930390638668   -0.86781232929757    1.59039603031717
N          -0.97656717263789   -0.68931071628557   -3.16471271187514
H          -0.26183332924216    0.03666787914032   -2.92937506923668
H          -0.59285408187316   -1.61317407920756   -2.82758750948663
H          -1.72020094022516   -0.39419106125461   -2.43679123975639
H          -1.27809470568311   -0.68565393006441   -4.13288413659732
