    26
        -50.45688576  Gyration_radius:  2.53982834306 Dipole_moment: 5.615
 S           0.51145690688395   -0.09427728785257   -0.88694235065368
O           0.48887752518353   -0.82820852208986   -2.15104345620994
O          -0.62624417091586   -0.46680768079983   -0.04458842783112
O           1.80319632420713   -0.48062693708818   -0.16249801813176
O           0.49531754931438    1.35429966212772   -1.13702854755912
O           0.71170943106623   -1.45644406495076    3.42915532221914
H           1.31850153389268   -2.00109122767386    3.93289497272743
O           0.24610550163173    2.54888535787480    1.21425014898173
H           0.73409257985777    3.36929511880887    1.12018960179592
H           0.25168086649522    2.12662054504634    0.32827984430710
O          -2.88733464395424    0.06561934342360   -1.24926204209986
H          -3.39603755342676   -0.74643000109804   -1.21208744368675
H          -2.10060937517991   -0.08830545253381   -0.66754559456298
O           1.81708035409788    0.57479636747287    2.09722671206768
H           1.85625174984208   -0.02474635769680    0.79201042417435
H           1.18053608799311    1.31375375027740    1.97286923488193
H           1.37259776678647   -0.09072491827017    2.67508295922267
O           0.34045511106284   -2.67247945433367    1.05914976803281
H           1.19153466234306   -2.65249007905497    0.61311295311289
H           0.47035849541482   -1.97594430568409    2.62904643900384
H          -0.15964679224908   -1.92695767514007    0.66887983759982
N          -1.15627850907328    0.85356719506204   -3.06221790084113
H          -0.50205502650073   -0.00226181221358   -2.96724839766685
H          -1.30926558432362    1.19188695139779   -4.00583653607731
H          -2.03705194178593    0.60365590758507   -2.53682679529486
H          -0.61522883865714    1.50541557740616   -2.44902271753701
