    26
        -50.45688581  Gyration_radius:  2.5396308763 Dipole_moment: 5.615
 S           0.07887524970136    0.99471935880343   -0.24826205015985
O          -0.71426052420686    0.79038017652151   -1.54124891005069
O          -0.31925937675146   -0.03568941285201    0.71210456941368
O           1.51870259395764    0.88992968155307   -0.52585893239750
O          -0.24611882261122    2.32941012724453    0.25172899313868
O          -2.48124470441344   -2.63824227500435   -1.12769632685715
H          -3.24293098982091   -2.80170840442737   -1.68600046997353
O           0.91621422094621    0.29597685714759    2.99493136152284
H           0.46924282610064    0.02252305997559    2.15444906407341
H           0.22761182991166    0.29780182223043    3.66231299012178
O           2.01043249036957   -1.64009890976278   -1.13841484235245
H           2.72694766434768   -1.59856788088271   -1.77477746607506
H           1.86646583724182   -0.71914646375495   -0.83127869525606
O          -2.88086615496153   -0.26776187520614    0.07839719951507
H          -2.87935634194312    0.39120823251419   -0.62120021414356
H          -2.69910044649545   -1.84698422013087   -0.58478182610197
H          -1.98033816716240   -0.22412627407295    0.45970682597037
O          -0.37273547291087   -1.54573559159069   -2.34533384896218
H           0.46821146226134   -1.78679162025053   -1.89656165713873
H          -1.09009461768881   -2.05898912593764   -1.90220138285873
H          -0.56872157225180   -0.18489162768401   -1.92775937891116
N           1.88246626564867    2.30639856270857    1.60608732469602
H           2.22770027268354    1.74672782838207    0.79286030603386
H           0.93652098937423    2.60673486244702    1.17676965164309
H           1.64707261159640    1.61743417346198    2.37037603276906
H           2.49856288712131    3.05948894857739    1.89165169232742
