    26
        -50.45688577  Gyration_radius:  2.53933580818 Dipole_moment: 5.609
 S           0.56427350677128   -0.38919458007385   -0.76861898161592
O           0.47250885140323   -1.80448374539826   -0.19299441426928
O           0.41562806903937    0.57083817273646    0.32631247389780
O           1.87673153400180   -0.26333645163958   -1.39988675055407
O          -0.50115636992700   -0.18503770490386   -1.76061208008294
O          -0.69221372579134   -1.33677072136203    3.48110339053496
H          -0.52407245286781   -2.06277760662815    4.08378470815566
O           0.65976713401092    3.02503877235927   -0.54758350338674
H           1.31845984280303    3.43451980032559    0.01640984858715
H           0.45829797018702    2.15112408835690   -0.12720931318821
O          -2.79556565430297   -0.14793275771372   -0.43707900646599
H          -1.95344858352126   -0.07206162502460   -0.93538627718215
H          -3.43016472594907   -0.53163868451996   -1.04554527262727
O           1.63526320897147   -0.76754010748003    2.25970629932102
H           1.23405511793522   -0.14262185988166    1.62192203830748
H           0.18583828597077   -1.04206588605066    3.14866147458229
H           1.85788108340284   -1.54034529673769    1.73347078140043
O          -1.65597350362911   -2.02372870379054    1.08861760548026
H          -1.41760513635657   -1.73691427166347    2.00250221756332
H          -2.19609594296302   -1.30214069346416    0.69573351703858
H          -0.43496552359804   -1.94276003639651    0.33510850098112
N           0.99779747854708    1.66449647428573   -2.76998163327436
H           0.11069645386458    1.11306766868370   -2.71991008973224
H           0.92096386588192    2.42933643198542   -2.04648323384632
H           1.65118087070145    0.91656655532017   -2.34195735766741
H           1.24191834537703    1.98636277868379   -3.70008491195459
