    26
        -50.45688572  Gyration_radius:  2.53976728791 Dipole_moment: 5.618
 S           0.43320432506219   -0.80778579571690   -0.46702910082855
O           0.06610198168166   -1.74112077081483    0.68925936211896
O           1.71057615102291   -1.26987420170533   -1.00689254597078
O          -0.60920561423023   -0.86432349945087   -1.50213374049182
O           0.54640594054874    0.55629573676894    0.05154262573839
O          -0.80476210916344    0.59952257627728    3.65934977008069
H          -0.76863151934880    0.21507822734323    4.53657158576623
O           1.27078822307454    2.21113935257547   -1.84172341382528
H           0.90675669196342    1.69636816167582   -1.07791193520299
H           2.02729613460601    2.68615927388668   -1.49291447336699
O          -2.77815658789774    0.26641411851218   -0.48445642215211
H          -3.50793947378282   -0.20873674037617   -0.88660440525398
H          -1.96329099640093   -0.07697234522467   -0.91020840282328
O           1.53335587210491    0.03857384259670    2.45482970711746
H           0.10007530717875    0.51613247038712    3.28164605826000
H           1.56021474946715   -0.91712607631134    2.35659751239611
H           1.24856412638936    0.36818990662455    1.57819911644693
O          -2.00100341387110   -0.89095236615230    1.79629294451724
H          -0.82586274561467   -1.42551600899879    1.16519130213863
H          -1.66561591465436   -0.27335602942909    2.48934153791314
H          -2.39060677823321   -0.33553460593315    1.08469190361403
N           1.20184885740433   -0.05987892388461   -3.16175507297234
H           1.32611607964738    0.94960480710940   -2.87959141330809
H           1.46300852184942   -0.26563347406373   -4.11975058024019
H           1.70007619914068   -0.64359255961503   -2.40022641193830
H           0.22068600207276   -0.32307510609646   -2.91231549773111
