    26
        -50.46460202  Gyration_radius:  2.41142413094 Dipole_moment: 2.664
 S           0.53801072855286   -0.10891845573861   -1.28356094000537
O           1.00215933962467    0.32144163317620   -2.69378717106120
O           1.71912833331866   -0.32359466931013   -0.47151890908378
O          -0.29735060618704    0.96852348974031   -0.73787344344312
O          -0.26324389752441   -1.33246182109892   -1.42030222298569
O           0.57418595500464    0.72849756929218    2.90522659759543
H           0.73340872313081    1.18423026027572    3.73249855555979
O          -1.63920532140417    0.18983695322150    1.39929379827678
H          -1.01142596689568    0.44816711834193    2.10066332248040
H          -1.27086048950160    0.58063722589263    0.57285197477367
O          -0.90539137002158   -2.14458850331397    0.84736469150915
H          -1.36699267357581   -1.25115436138333    1.15184038964316
H          -0.67968884285896   -1.94228757769000   -0.15085138691640
O           1.53870690390265    2.04085737214669    0.85482086734937
H           2.20184442646588    1.43013465309592    0.50853917389601
H           0.78407240827011    1.90199263071933    0.24888010013354
H           0.97481001359953    1.29471297349948    2.18642510168476
O           1.35992895198958   -1.64316559145255    1.78703851478368
H           0.03938470429999   -2.10101109029175    1.31797002505877
H           1.68633388112942   -1.24429798940111    0.94849530172331
H           1.17958299867796   -0.88544491365713    2.37519000147949
N          -1.50951772251814    0.40392330814788   -3.33165180989807
H          -2.12847669427586    0.46699944229926   -4.13000984552284
H          -1.78463812625582    1.09306957986199   -2.64232443126394
H          -1.60754195115953   -0.50932936845100   -2.90106602975130
H           0.13277631424000    0.43323011207313   -3.17415220599911
