    26
        -50.46460208  Gyration_radius:  2.41141958794 Dipole_moment: 2.667
 S          -0.22653579114026    0.71342224042121   -1.17819730686486
O           0.03785850058833    1.69328987430990   -2.34414535113737
O           1.04879796823023    0.48312409940562   -0.48757473522035
O          -1.20184667910729    1.32269868522276   -0.29607456543269
O          -0.71472137109301   -0.55037020261194   -1.74585315734287
O          -0.15351059796182    0.07539715335119    3.04493932450656
H           0.00346031700561    0.22763540233110    3.97745351115904
O          -1.29703152173550   -2.10782042619340    0.11141660369236
H          -1.13128600064273   -1.55142015494388   -0.75536660944851
H          -0.35475495578895   -2.07468640131672    0.57510781548290
O           0.92107450527252   -1.57925353486923    1.15691000441650
H           0.66291614438990   -1.12633318624764    1.98208428983059
H           1.13028271624208   -0.85331520022485    0.52392888705624
O          -2.35429590561925   -0.28069510553089    1.45684286911163
H          -1.88081135743986   -1.45640400920713    0.70373890070292
H          -1.72424565270628   -0.17218607005997    2.19429245140859
H          -2.11246436563623    0.41935894927720    0.80860154027429
O           0.60934791567791    2.10194693524423    1.57264401189439
H          -0.21984768108818    2.39249671931688    1.17181739827769
H           0.16283110010346    0.89275621140094    2.56568300235010
H           1.02486610390607    1.58705633743023    0.85292100997030
N           1.66442344366574   -0.09521967192740   -3.28074369666700
H           2.28000396881997   -0.12700292780979   -2.47719135672434
H           2.18877313040386   -0.34071807645532   -4.11083010977431
H           0.93386290495543   -0.78240357308205   -3.12854082214388
H           0.70285314069124    1.18864593276242   -2.89386391937615
