    26
        -50.46460215  Gyration_radius:  2.41144476384 Dipole_moment: 2.666
 S          -0.34639043930475   -1.08069096670081   -0.81283063112241
O          -0.45184677047475   -1.95283296377396   -2.08468992781198
O           0.08807459885646   -1.94094080861957    0.29575966869074
O           0.66679411267344   -0.04686543223490   -1.06034215737185
O          -1.64851018879971   -0.49459179964589   -0.56478937826653
O          -0.77776461358957    2.80647131912328    0.90519658861677
H          -0.92446623592570    3.75038943749563    0.97500868242117
O           1.39482217914652    1.17303078127667    1.16605330348589
H           1.28123944978799    0.74707991067335    0.28455750023709
H           0.76667071256565    1.92015713581283    1.16660129417603
O           0.12481194311859   -0.60408730762125    2.39941618943958
H           0.11887633677462   -1.28556107898338    1.60940378097156
H           0.76803290607865    0.14375111028139    2.03729362611078
O          -2.02217141378874    0.55087107489978    1.83082276281360
H          -1.72665224478672    1.46194701371367    1.64338523320258
H          -2.09200256784184    0.11812642467012    0.94956008948518
H          -0.82907668875525   -0.15531740545421    2.33291780334552
O          -1.01035066674826    1.95227922914518   -1.55916206013034
H          -1.75919114487051    1.34532674081435   -1.50070958352629
H          -0.88832344070717    2.57167466723093   -0.05938210125193
H          -0.24354401162991    1.34570188134509   -1.55614617666838
N           2.04729535636111   -2.53328294959632   -1.71257057467059
H           0.47608505001390   -2.31549828878805   -2.16583121709055
H           2.77306530800863   -3.16889038360602   -2.01837375373203
H           2.39601806575292   -1.58353950964773   -1.75813414069735
H           1.81850440811091   -2.72470782184140   -0.74301480063485
