    26
        -50.46460207  Gyration_radius:  2.41139512266 Dipole_moment: 2.666
 S           0.10375373815094   -0.64516312818118   -1.23330912535707
O          -1.28981843013325   -1.06404022918673   -1.03272899058554
O           0.23340979563991    0.78901619172795   -0.94558275128230
O           1.02463454678784   -1.42900112349333   -0.43440229980219
O           0.46124861735406   -0.86258275455510   -2.72131170435500
O           1.43112988308472    0.66472842320963    2.60969278514230
H           1.98893945844655    1.04152878182041    3.29100373583590
O          -0.87345070653210    1.43482243345602    1.36342194456073
H          -0.10338344671008    1.34148696299532    1.95591647238718
H          -0.50490549610686    1.34879611280310    0.45333567670322
O          -1.85866359922084   -0.87191221412544    1.38684165829246
H          -1.74768417610987   -1.03561938607902    0.36258326931890
H          -1.60215664313307    0.14335991283502    1.47421874676894
O           2.59565892447068    0.67421986514829    0.26434313847564
H           1.82080716728174    0.95582299201541   -0.26123328747094
H           1.95280256280732    0.70671376191122    1.75890724933636
H           2.65833399181891   -0.26726797173411    0.05855600050142
O           0.35669572750579   -1.79899361164268    2.09309949888894
H           0.79697676398973   -1.01816926403771    2.47916295848372
H          -1.02238186391743   -1.36864804244109    1.79896454276332
H           0.69581752314877   -1.85423643533344    1.17080760987774
N          -1.52447238401699    0.71023130308386   -3.27337486847595
H          -2.10605166476809    1.02286583311314   -4.04043684837195
H          -0.22304478215228   -0.30025797501516   -3.18443478425917
H          -1.17970214167238    1.51708881927801   -2.76744182365280
H          -2.08449336601802    0.16521074243969   -2.62659882372151
