    26
        -50.45730774  Gyration_radius:  2.54966656199 Dipole_moment: 5.134
 S          -0.73885523853443   -0.12903251002155    0.78932220787469
O          -0.27421946279717    0.56641161711305   -0.42950415477437
O          -0.99157248904801   -1.59693316842171    0.42027411009514
O           0.32840292001105   -0.05931303862822    1.80223304054607
O          -1.97662035298183    0.43055918230712    1.27576683798748
O           0.34500486039702   -1.90947392716818   -3.23003648528068
H           0.03122063772184   -2.66607347907708   -3.72772373681378
O           2.62353967997572   -0.71458247174012    0.70794014525816
H           1.77763535945287   -0.48438365591534    1.15611110768701
H           3.10236956782586   -1.27669462591971    1.32006314758043
O          -1.68051182056584    2.97151075683360    1.82202269058155
H          -2.01103265356723    3.08803256178939    2.71470356099852
H          -1.92030337632682    2.04281199193551    1.57091780726114
O          -1.81240371268602   -0.67064714882871   -2.21199615562939
H          -1.28315313056424   -0.07022089407453   -1.65145649758349
H          -0.45345354796046   -1.38941678447677   -2.98378655613690
H          -2.24469877088118   -1.26537880818061   -1.59324106251674
O           1.08593454363797   -2.42874686279816   -0.72047184596485
H           1.76847683464566   -1.79932870136386   -0.41143245600994
H          -0.13770563927202   -1.99184406363095   -0.03058264622294
H           0.92797979193652   -2.23571356375991   -1.67522900465793
N           0.74851298809022    2.37165142091080    1.02209678559683
H          -0.10667447358799    2.88104542166644    1.37128811390486
H           0.42986707170643    1.83077826811117    0.15213957804119
H           1.56829743854096    2.95252699401116    0.88327728657964
H           0.89396298482310    1.55245549933048    1.65730418160483
