    26
        -50.45730783  Gyration_radius:  2.54955896573 Dipole_moment: 5.133
 S          -1.05574503875352    0.11595150336876   -0.24227855771275
O          -0.77556242608863   -0.24124367718915   -1.64356617088855
O          -2.36239206695300   -0.33242586356879    0.17416886590267
O           0.00817889136072   -0.45709241830201    0.60912854417472
O          -1.00376213224364    1.64188254229034   -0.08860874315995
O           2.21062612787789    2.27920816130142    2.02813435765655
H           2.26784517983546    3.13355417255080    2.45877806827104
O           1.74711867481667    0.24364204546472   -2.18652214253632
H           1.79903124781917    0.64392067069420   -3.05659189581106
H           0.79163460851342    0.06959137285359   -2.02466132794390
O          -2.51308253083109   -2.94132513152910    0.06074481718181
H          -2.53540587462920   -1.96249513846546    0.21752268678562
H          -3.30300967394060   -3.13681543879096   -0.44665989430616
O           1.37440705827201    2.33492091389657   -0.50442942500983
H          -0.03498967118928    1.97628480242771   -0.28394935553771
H           1.79347210531602    2.30134593000327    0.38831244922890
H           1.73201132930298    1.58112757675047   -1.01575863933567
O          -0.17482984198774    1.21779529758249    2.66713786219343
H          -0.08666653416168    0.47751584120256    2.03546774171623
H           1.40142197542929    1.84456264377370    2.38161671176623
H          -0.86709466410070    1.77288803616643    2.29819495984379
N          -0.05302179949803   -2.57182838255216   -0.78220701520747
H           0.67797918556961   -3.23392773318291   -1.01882531786307
H          -0.27756313344655   -1.87913678400043   -1.53396076684860
H          -0.96747005925934   -3.00357711735667   -0.48170379312341
H           0.20686908297107   -1.87432382540290   -0.00948401943750
