    26
        -50.46234967  Gyration_radius:  2.43305345573 Dipole_moment: 6.648
 S          -1.00112052782647   -0.35244949951071    0.94557493042110
O          -0.13956188056193   -0.31898078917865    2.10894151944620
O          -2.03578862205827   -1.38659027644378    0.98284082898286
O          -1.54833791421330    0.95185214212010    0.60954255950705
O          -0.12519727623693   -0.80944727135128   -0.28258787985390
O           3.49175637264140    0.16955747792853    0.08605578368758
H           3.83596497733795    0.77206403876481    0.74823272197235
O          -1.58127105036684    1.05104715511046   -1.96535138065746
H          -1.63725597073241    1.21528727988453   -0.98939338088468
H          -0.64382951726811    1.14381866948069   -2.16895856112949
O           0.72866335123750    2.16910492822964    1.54288113263053
H           0.53181588672087    1.29507683854072    1.92952368365959
H          -0.13374133972625    2.58588800829639    1.45937978725743
O           2.06364882418563   -1.67682188638864    1.42874150577420
H           1.68059585130715   -2.26229757863659    0.77224252078635
H           3.06219714858143   -0.55966573436847    0.58799196682221
H           1.30547742912443   -1.19777563076103    1.81940167288459
O           1.26109308567479    1.21062008850472   -0.89009254376393
H           0.46911110198736   -0.02160940849836   -0.56408015840505
H           1.08102785609707    1.74303969622011   -0.07873982293514
H           2.17449483261088    0.86641913975925   -0.73806495458616
N          -2.58683717225529   -1.33214900406574   -1.49540946529167
H          -2.09126608401867   -2.09545425989026   -1.94659145700876
H          -2.41252566833256   -1.39939122922165   -0.39831824280638
H          -2.16856773903373   -0.38963141362311   -1.80170417519982
H          -3.58054596488185   -1.37151149088437   -1.70205857130124
