    26
        -50.45760698  Gyration_radius:  2.49471135816 Dipole_moment: 2.740
 S          -0.25154142989754    1.16244398789429   -0.78062487444209
O          -1.29257116279902    0.21978605701101   -1.17188171680294
O          -0.63554946544296    2.53320029024573   -1.39183064748445
O          -0.22899585024563    1.33012348421999    0.68301899553240
O           1.05677149843005    0.77184567740355   -1.26909957272127
O           0.91506673773252   -1.87501755393622    2.17932079268821
H           1.64961602493831   -1.51758566517786    2.68045360220319
O          -2.62736750690512   -1.45829482274610    0.37284030623004
H          -2.23769350411757   -2.25626409793334   -0.00392567796831
H          -2.38275696561884   -0.74558472611664   -0.25594715321957
O          -0.73097953105308   -2.31871038654911   -1.70219257311244
H          -0.91464244278305   -1.35640145198605   -1.62994646575783
H          -0.65351027193562   -2.50614210989522   -2.63853232121671
O           1.53669438085082   -1.66518475369426   -0.31821645867923
H           1.49056034656165   -0.74540242530317   -0.65402155155129
H           1.19361995810116   -1.84451230506438    1.21296571371827
H           0.84273792254192   -2.13873093503303   -0.81035961896282
O          -1.14947072437484   -0.42445036520204    2.15648526352501
H          -0.79270322622946    0.38428414312966    1.56375753105746
H          -1.82729592879285   -0.90607966838090    1.54597824551634
H          -0.32742486188936   -1.05229642426256    2.24884320671704
N           1.59166890374368    3.39605448557631   -0.36346933642090
H           1.40400145451988    3.31732655827423    0.62797141483794
H           1.94087588985458    2.49542355999050   -0.67890329764716
H           0.12721666770996    3.09951687653814   -1.09465196940703
H           2.30367311711597    4.10065257104030   -0.50803180665873
