    26
        -50.45760697  Gyration_radius:  2.49466635162 Dipole_moment: 2.738
 S          -1.08104215027835   -0.62753468947401   -0.67947431886637
O          -1.36067675758706   -0.99330169215304    0.69561857940599
O          -0.96525881538096    0.83521369212625   -0.81307655459001
O           0.11380063030956   -1.28484507275894   -1.19501648695294
O          -2.26173500555740   -1.07632450962723   -1.57653097344570
O           1.70681756643784    1.97956471395030    1.50556839822337
H           1.18085876608507    2.61840141038289    1.98896828774685
O           2.04977496876358   -2.10463292764494    0.42356486677891
H           2.00970508650442   -3.04046773336066    0.62478242177800
H           1.27961488902149   -1.91620967804911   -0.15642472331977
O           2.44871807355012   -0.18900585040219   -1.77051173070122
H           1.59423316449293   -0.66932199485879   -1.81862060802958
H           2.93058218044146   -0.62524671092946   -1.05772034520939
O           0.79629243755757   -0.35831884723020    2.11594904028788
H          -0.06878535603347   -0.55817124169928    1.70042517062509
H           1.41098373334327   -1.00035423346321    1.71849803171284
H           1.38427953375704    1.07228942860852    1.79759782557394
O           1.25502570449149    1.90331887862671   -0.97575043494554
H           1.49511438830219    2.00802649057666    0.02915434852186
H           1.84831844579031    1.14618272249376   -1.34839230423995
H           0.27562519425897    1.48708644969101   -0.96637688214017
N          -3.75141466615472    0.35008167158203    0.00728645428701
H          -3.02412087001156   -0.60224133230537   -1.14657887938983
H          -3.41611696284368    1.28548843592649   -0.18502320375528
H          -4.69949240264675    0.40636672399293    0.35698994924981
H          -3.15110178664677   -0.04604410402077    0.72509409145418
