    26
        -50.45760698  Gyration_radius:  2.4947670139 Dipole_moment: 2.742
 S          -0.01334333777603    0.04930562443809   -1.42158396511174
O          -0.18035585534938   -0.13415862297615   -2.95079937526471
O           1.31369942721713   -0.44814585922655   -1.07959802615264
O          -0.17864050520374    1.45091455655626   -1.08833327466856
O          -1.05468287372823   -0.76418809455077   -0.76991545790711
O          -0.83698019424750   -0.16903319143197    2.89369292665537
H          -1.74602226202336    0.10429877813653    3.02548937121028
O           2.76573979547199    0.68566472984022    0.82989305181024
H           3.42769181892591    1.29326445654575    0.49743785753607
H           2.28193134950978    0.35085854835971    0.04322871418269
O           1.96682111220791   -2.14378945014453    0.83905808939674
H           2.44459013337209   -1.49694443458489    1.37185376200935
H           1.84291065253626   -1.70290462906036   -0.02896403707938
O           0.31329659157837    1.68653249016676    1.51475698349017
H          -0.38385457512589    0.58774168967755    2.40956588822420
H           1.25980671837092    1.45923828087951    1.49203424919544
H           0.04119579762683    1.69568083457362    0.57306028680829
O          -0.53336780245503   -2.06857332467687    1.26074624773403
H           0.48470342005726   -2.21638183444984    1.18476655830859
H          -0.67977852959136   -1.35053620990646    1.99653818922786
H          -0.79315303942312   -1.57035132099063    0.35689120265228
N          -2.50015391945349    0.99813159942361   -2.63704869249577
H          -1.09024371376979    0.24332826245927   -3.09413752351294
H          -2.99216700984104    0.30972149196173   -2.08172227688866
H          -1.98337248107560    1.59298371212611   -1.99543731038188
H          -3.17627072778016    1.55734191686466   -3.14147342898018
