    26
        -50.45706877  Gyration_radius:  2.55781148108 Dipole_moment: 4.841
 S          -0.93618585542703    0.25531353666450    0.23553122906319
O          -1.43815169335444   -0.20985244770865   -1.13353564334975
O          -1.73203642247258    1.41673849611697    0.62121793187154
O          -1.07095919163033   -0.83299987697305    1.20433866459587
O           0.48009486413696    0.63743635402109    0.10709876023938
O           1.72993763514480   -0.55471948044028   -3.37105746988082
H           1.58583742972482   -0.55822652005681   -4.31857220234003
O           0.68183893028284   -2.70898142218627    0.54450404552888
H           0.08925770955933   -1.99418425122267    0.86144542163543
H           0.29220148096571   -3.53062457767642    0.84955873232533
O          -0.52773415142299    0.11674421230211    3.59283244290014
H          -1.34737124294769    0.06557580980067    4.08820834314985
H          -0.70729748538481   -0.34434333800066    2.73578887135944
O           0.02487082328365   -2.05334864038348   -1.95918563092801
H          -0.85468450209464   -1.01487823226397   -1.49980803334102
H           0.73852411266751   -1.59469989918938   -2.46294601360223
H           0.42979998009499   -2.37637318552437   -1.12309487793425
O           0.44378817416790    1.58471613950335   -2.36316253224395
H          -0.48600392434226    1.40762969729998   -2.53241599263851
H           0.58077300127559    1.30616890329841   -1.43416839601458
H           1.38752319821408    0.30564200452901   -3.03952303271758
N           0.15599045891147    2.18939002626782    2.11720343253615
H           0.02263061989958    1.53189032655130    2.92828123468738
H           0.51431535906359    3.10474204340021    2.36624778838336
H           0.72385810881517    1.67598121954169    1.39449995306544
H          -0.78081743715944    2.17526311232279    1.59071300367902
