    26
        -50.45706879  Gyration_radius:  2.55768131245 Dipole_moment: 4.840
 S          -0.21316791689408   -0.28759077423289   -0.93196298706430
O          -0.26087050452710    0.23117628197423   -2.29563289985164
O           0.28714826595897    0.75175580476500   -0.01662164376102
O          -1.64584286403623   -0.64135871205105   -0.52598027965929
O           0.63195826622860   -1.47859067274670   -0.84040253668872
O          -2.23254593076973    1.07232917270024    2.92052710723353
H          -3.14497714563033    1.19668603915037    3.18609057509827
O           2.97894168209246   -0.90601432867840   -1.87246253413394
H           3.05948212862454   -1.44988206254603   -2.65824813275676
H           2.14771161658859   -1.20622422975676   -1.42708911438260
O           0.88338986724496   -2.08066373459231    1.72888085122419
H           1.01229521406940   -3.03090413131995    1.74943102729159
H           0.87970108272848   -1.82839322773661    0.78077735628131
O          -1.67273931615487   -1.32259439679667    1.87296501238625
H          -1.82329692558114   -0.48147826366996    2.36621100078610
H          -1.68732269923585   -0.96456096036033    0.48233198474897
H          -0.73313900790891   -1.57378633734666    2.01961380420848
O          -1.97359611383436    2.05287796696768    0.42679865545466
H          -2.11685127049552    1.56691385745827    2.07828846412342
H          -1.07134134571401    1.68941476012743    0.31181786142510
H          -2.53148009980625    1.48614778764310   -0.11359746756185
N           1.89012304786972    1.49285527494206   -1.87001200450408
H           1.00350377131402    1.13539698792824   -2.36091111170486
H           2.24068725754319    2.39209837723022   -2.18097912926886
H           1.51242477798164    1.48337890451034   -0.88733240103836
H           2.57980416231539    0.70101061644168   -1.94250146789050
