    26
        -50.46125103  Gyration_radius:  2.43535801709 Dipole_moment: 6.928
 S          -0.01728253035161   -1.34473239088555    1.47469751805936
O           1.33898097392189   -0.65270810200991    1.84498374096819
O           0.15943151963380   -1.87650378603010    0.11249229307055
O          -0.32069429356767   -2.32928398755573    2.45227294824023
O          -1.01552940679572   -0.24427077124493    1.40472748604664
O           1.10244809158027    1.12042801305274   -1.83561654235324
H           1.41849229496916    1.32714228342990   -2.71588638432651
O          -1.17906810241389    2.37122341747430    1.75903022841163
H          -1.25799516002700    2.64450000895926    2.67409778650722
H          -1.24407749044487    1.39325851304386    1.75985454772550
O          -1.68433021216528   -2.21474084046137   -1.71187074524452
H          -0.92948165241496   -2.26906917250361   -1.07829751506120
H          -2.35580818919767   -2.80573951990828   -1.36771485839711
O           1.31537612287361    1.77793803308161    0.88278786314098
H           0.47093328134830    2.17194171914097    1.17947921437355
H           1.32757137605156    0.27821447278043    1.49688796419072
H           1.29191524097413    1.77267367831185   -0.08429581642507
O           2.35731462217814   -0.93473910113213   -0.88355918730938
H           2.88213579282162   -0.73795923253149   -0.10318606580951
H           1.56372701334827   -1.41799133923965   -0.54225936376909
H           1.63225678690655    0.32316198773954   -1.52974125327131
N          -1.38581364528463    0.35063542932450   -1.06003373680827
H          -2.10520641797706    1.05820123173045   -1.16589707142265
H          -1.23753937547782    0.11988193832275   -0.00857544440281
H          -1.65061889950850   -0.56114769297381   -1.50297138547972
H          -0.47713775098148    0.67968520008477   -1.45140620065387
