    26
        -50.46125105  Gyration_radius:  2.43538865617 Dipole_moment: 6.923
 S           0.46568812739825    0.35900932793631   -1.90594255711028
O          -0.53579365825660    1.54865303907451   -1.71387173087077
O          -0.30858979387141   -0.86669088215301   -1.64575082457252
O           1.02951122323471    0.42938481924607   -3.20757697281561
O           1.46454815080092    0.50382954092435   -0.81333772921509
O          -1.61960484601795   -0.31725887536034    1.76549029433756
H          -2.24162795343666   -0.72890529450057    2.36637896024863
O           2.04565504471540    2.12084778892038    1.19669645509034
H           2.51768209242935    2.91530628272960    0.94319501617910
H           1.99630655266453    1.56421101404086    0.39147529726444
O           0.58756815568486   -3.13654338339121   -0.70484494786218
H           1.27085162177812   -3.46616153768835   -1.29044095030636
H           0.15326235362851   -2.39517450415307   -1.19059480598036
O          -0.63871462447707    2.13815736912314    0.83076075834192
H           0.29145126441685    2.23726619823238    1.11590594124083
H          -0.56518296582507    1.78829181880513   -0.74968345198118
H          -1.00849560635157    1.40793670076052    1.34652943998188
O          -2.60146304282569   -0.22016231092819   -0.62843464035322
H          -2.06529009335776   -0.31050026697696    0.86482860168920
H          -2.73817283978870    0.67413512875582   -0.95202505587043
H          -1.79722315984767   -0.54437624166124   -1.10573549491310
N           0.86602452091552   -1.15111935947052    1.04900298375300
H          -0.08029752175280   -0.90176919703724    1.40844933370182
H           0.82455275958080   -2.07675159590502    0.55997885887475
H           1.13304598893294   -0.43623176710147    0.27531398592185
H           1.55430824962820   -1.13538383222232    1.79423323522668
