    26
        -50.46577050  Gyration_radius:  2.40754113155 Dipole_moment: 3.804
 S          -0.55293227978587    1.08805176573335   -1.17008507316971
O          -1.24556985207971    0.95669891695552   -2.42584840226289
O           0.88832124034075    0.78189657038969   -1.28993255611136
O          -0.77615848734643    2.32247818940280   -0.45859822729079
O          -1.13754227340048   -0.08199520339205   -0.26871287497778
O          -1.08298109349602   -0.14691268213770    2.83247616122925
H          -1.88981718016862   -0.15234173958584    2.31294775750582
O           2.19330791949118    0.79332998361918    1.05197436673861
H           1.91432971335042    0.95250509283916    0.13084505849839
H           1.65222288097182    1.40015941418472    1.58230099388603
O          -1.44356024160423   -1.60646283641492   -2.67386800598561
H          -2.19727120451861   -1.80288310088766   -2.11309273446647
H          -1.41082969626496   -0.61142907080719   -2.71307781918210
O           0.02417647993570    2.21362591301515    1.98908534620149
H          -0.09598448026439    3.08394428258082    2.37165670516772
H          -0.30286014542082    2.28151343196059    1.05071930662098
H          -0.68162813496610    0.73047435621402    2.68395684137066
O           0.65974925374897   -1.32475075324227    1.17838893356042
H          -0.43808755906199   -0.48677445258907    0.31199435023741
H           1.37477677661041   -0.63436870879084    1.22653586489968
H           0.12673360985657   -1.18653863731238    1.98664065306753
N           0.90543374894570   -1.75295662297129   -1.52428360939075
H          -0.03993761213360   -1.88401723212373   -2.00216651887019
H           1.03806469924545   -0.67493488434579   -1.51870473656178
H           0.86346137758335   -2.03099609643043   -0.53419309265756
H           1.65458253043430   -2.22731590587682   -2.01695868804320
