    26
        -50.46577054  Gyration_radius:  2.40742727833 Dipole_moment: 3.803
 S           0.23825793735108   -1.64234749042989   -0.32772810578847
O           0.36855784882850   -0.78362315563959   -1.52391369762787
O           1.52478428753355   -1.95644143144403    0.24322268561031
O          -0.53384029934879   -0.74224904031651    0.72938234027676
O          -0.63605082442853   -2.76421752249164   -0.55307933641355
O           0.78096916684660    1.34881334990470    2.60472734786278
H           0.30076034998750    0.57911837516130    2.91765921768676
O           1.80518997023417    1.44004201565862   -1.10026937080530
H           2.38318589223495    1.17172361809319   -0.36801606572438
H           1.45049656555978    0.60381882765854   -1.45601790825763
O          -2.97071625978967   -1.66400569121610   -0.45869139033384
H          -2.13735510556350   -2.20345763646722   -0.54411331320787
H          -3.12038475703762   -1.59635979465709    0.48691852230082
O          -0.40114791616658    1.83220046399354    0.25321005090156
H           0.42341976561584    1.87870824360641   -0.30182681507568
H          -0.40727583692407    0.22866997104193    0.55229938407255
H          -0.09524649113038    2.00053142353817    1.16673899961060
O           2.74763647543578    0.12999451076911    1.13529588395907
H           2.29461886364938   -0.69476565826181    0.80889609770342
H           3.61372493242116   -0.14887363339358    1.43590784432323
H           1.58125810700395    0.99921023654577    2.16882342417944
N          -1.87077857011136    0.42549231110925   -1.59223620787347
H          -0.91706231410017   -0.07517250422025   -1.73129949873843
H          -2.25838973665339    0.75887446540633   -2.46835073685206
H          -2.48062509614885   -0.32410193329291   -1.13890702066826
H          -1.68398693536417    1.19841768932152   -0.93863233110706
