    26
        -50.46577059  Gyration_radius:  2.40733444331 Dipole_moment: 3.803
 S           0.64827607785378   -1.47231162883726   -0.52246696442101
O           1.93633326336448   -1.89090936620343   -1.01188051409285
O           0.47728807172630    0.00979076161512   -1.06847349842306
O          -0.48012276063738   -2.23228477426152   -1.00080605219648
O           0.62605813589256   -1.33227770684322    0.94903682148124
O          -2.22440543924241    1.48580820799513   -1.43437138590981
H          -1.61752793366712    1.29671840828896   -2.15335650604325
O          -1.67547313027645   -0.34229195761639    1.90348929056224
H          -2.30956491072005   -0.60894236993871    1.21855686673009
H          -0.88542276874598   -0.88972399626002    1.73691963455384
O           3.31937213328033    0.28341996720883   -0.84036180468781
H           3.04762795192404    0.75456877901282   -1.63113967920867
H           2.90981266977992   -0.62023176411751   -0.93195893514602
O          -0.56996137793068    1.67877525240459    0.65999025570415
H          -1.24329499068376    1.95543594998805    0.00688045007050
H          -1.04822671877521    1.04911527863747    1.26426490760172
H           0.02016112520653    0.59734061484983   -0.40805218707150
O          -2.72783378527105   -1.05653149767009   -0.54244337052723
H          -1.87404936779436   -1.52911193943026   -0.74183973273230
H          -3.42650973388406   -1.64752554201697   -0.82671816353906
H          -2.55519826243311    0.61756587533868   -1.13542089295989
N           1.94833886149213    0.80978675316503    1.32850740295243
H           1.44355846157282   -0.15192264553836    1.31719345936926
H           1.20840981707769    1.51137386472993    1.18810583621377
H           2.45482884139393    0.96502282553793    2.19357902412765
H           2.59752573951101    0.75934264990385    0.48276572754464
