    26
        -50.46577059  Gyration_radius:  2.40746497248 Dipole_moment: 3.802
 S          -0.72381635243334    0.93081186065505   -1.21241331648668
O          -0.66360764704099   -0.50984048672585   -1.53850135333695
O          -0.22844569527036    1.75492231512607   -2.28448819309583
O          -2.01260921076675    1.30183893268073   -0.68226329891369
O           0.33397023454621    1.12119764920792   -0.04250025422359
O          -0.21156964951187    0.60642709707350    2.96677243554440
H           0.03935833063444    1.46045638371225    2.60808482819253
O           2.32722057253640    1.44816976880721   -2.07271190375294
H           1.36943109097138    1.62982132833027   -2.27850132266717
H           2.54166964613307    2.05399229871056   -1.35987567379766
O          -1.36356369387712   -2.10705002905831    0.49793935850832
H          -1.95406873719154   -1.53287642805917    1.01166045341782
H          -1.28829704655129   -1.67124861598536   -0.37157203157361
O          -2.52465234920952    0.15313209551737    1.56781925918727
H          -3.41682835839027    0.39550683788878    1.81991618699550
H          -1.10141024559141    0.42347870023057    2.60967590801332
H          -2.34983325427337    0.61876529939453    0.70492252750432
O           0.93088453310700   -1.08658544168001    1.23794652781899
H           0.12695325621967   -1.64034081330991    1.04477423414180
H           0.48665174255971    0.27586161236886    0.45986363600786
H           0.73730833910433   -0.65899988000368    2.09594393649360
N           1.82375449735775   -1.02127005759602   -1.35891904986571
H           1.90703476851881   -1.18267027322619   -0.34578314076645
H           0.75919132157696   -0.92521869358379   -1.55197512184205
H           2.21244599524198   -0.06499339966320   -1.63039685001840
H           2.24282792161143   -1.77328805083150   -1.89541777147274
