    26
        -50.46577050  Gyration_radius:  2.40758191056 Dipole_moment: 3.803
 S          -0.99838597007869   -0.23073175874047    1.34520515526238
O          -0.47635680519725   -1.49311637003134    0.78012021428897
O          -0.04865376800273    0.89638268108751    0.75269241816555
O          -2.33260064019322    0.04990228223859    0.87521370529052
O          -0.80825010286557   -0.15055238183501    2.77043194502289
O          -0.36994455094281    2.22513791078046   -2.03255908271997
H          -0.41433240350014    2.70730089436090   -1.20395448330151
O           1.71046385105582    0.38954180277689    2.95564229165323
H           1.72376647183112    1.33486553910864    2.79031498153245
H           0.74351283695753    0.15909832845421    3.02427631411483
O          -0.59937682240526   -1.61081295114971   -1.89554359214630
H          -1.33959156053915   -1.01377811640261   -2.09034399374383
H          -0.67827224636868   -1.80101839741273   -0.94201473818798
O           1.24474423763161    0.18339377713391   -1.41225332290330
H           0.66284965154611   -0.55119530399370   -1.74708816488652
H           0.93060026307185    0.98200104110392   -1.88130224638847
H           0.37537943565543    0.61192355141226   -0.10152546734498
O          -2.42218000692000    0.44512552185881   -1.67041087960098
H          -1.15489338321495    1.64503639725352   -2.04081143299410
H          -3.34223570419340    0.55765608423471   -1.91330808149159
H          -2.41625266894396    0.30678144933082   -0.68404021633385
N           2.04387208817106   -1.14213238375222    0.85720826774873
H           2.18491205119467   -0.61837154573881   -0.01751521421787
H           2.09810591991503   -0.49730879964780    1.70604763305803
H           1.00397594990840   -1.45562126983873    0.84449959033080
H           2.67914387639992   -1.92950797261503    0.93101839975833
