    26
        -50.45572188  Gyration_radius:  2.47907769252 Dipole_moment: 3.363
 S           0.13447341251898   -0.96789203245457   -0.68528783420877
O          -0.20143322726020   -0.55163270370336    0.70225246670752
O           1.42776636591710   -1.63137575365997   -0.69270458942843
O          -0.96263460202896   -1.96362007017927   -1.11955839393998
O           0.08952476950779    0.18050291104133   -1.56627992001805
O           0.00271834418694    3.30489584839438    0.41531890858861
H           0.46387247975318    3.90416785040780   -0.17417971255669
O           2.68297763638618    0.65692542972595   -0.93357579536028
H           2.49726804460721   -0.30618573129574   -0.85067451729916
H           2.06723356057080    0.92884661880370   -1.62743145524039
O          -2.64908584777926    0.49503126065337    0.99918008622379
H          -1.81044962162264    0.00025850792087    0.91313650465228
H          -2.64958072525558    0.87520481606159    1.87961042240729
O           1.37131247258976    1.32962213392753    1.13254258435269
H           2.02623553959464    1.14430471230972    0.35174364664504
H           0.81726138155810    2.19570322438028    0.88153981048274
H           0.69429342307406    0.53085768345075    1.06656014103768
O          -1.71895060579065    2.06276955377835   -1.00875445542307
H          -1.13364671687431    1.37359558949606   -1.38245095914777
H          -2.29310584068177    1.58457106188684   -0.37935809070189
H          -0.73886002153063    2.87715201766158   -0.13728894726485
N          -0.02128394054196   -3.73061673301117    0.52930942289380
H          -0.79603877576241   -2.76805191147416   -0.54021419227337
H           0.85557362114822   -3.26449731136709    0.30898093263493
H          -0.25368939284432   -3.53088816484316    1.49316347308353
H           0.09824827656701   -4.72964880790090    0.42442046315140
