    26
        -50.45572191  Gyration_radius:  2.47891844396 Dipole_moment: 3.363
 S          -0.79004602058437   -0.07779870343917   -0.89106194568211
O          -0.49871615972445    0.00295182788836   -2.40514006031964
O          -0.86651945889274    1.26888673048326   -0.36427009968529
O          -2.00820289672721   -0.83865399389201   -0.66739917048178
O           0.36105339376386   -0.79336160301560   -0.27920559322680
O           1.28794616949557    1.59368989095396    2.62579863626224
H           0.80246730832949    2.25203265441204    3.12600536315785
O           2.75330016201629    0.30972323165688   -0.76252382405450
H           3.35681186119900   -0.13982402561872   -0.16810387462971
H           1.89819871653651   -0.15882702948448   -0.69344499409808
O          -2.37402757123656    0.29369763989211    1.66816821956469
H          -2.18994828009689    1.16146974237183    1.28403935857594
H          -2.49466160579790   -0.27034616030270    0.87052871231655
O           1.44356720844250    2.46775729298777    0.22841870385766
H           2.07680164860878    1.88218488267062   -0.23059310274627
H           0.56470857134101    2.18077088563335   -0.09157869816843
H           1.42264136899180    1.98584019029180    1.69516363553353
O          -0.01449427193399   -0.49914564114625    2.16420263371637
H           0.21588600825996   -0.71019084741728    1.16278089296822
H           0.55555219433884    0.35653639293877    2.41470735973650
H          -1.00705945467775   -0.20672049370880    2.11766210631826
N          -0.89412094054607   -2.55102736319985   -2.62364597050545
H          -0.56996009164723   -0.95184818515280   -2.71172223239319
H          -1.36504176083569   -3.08391129808775   -3.34317293653782
H          -0.12334035927571   -3.09921824882870   -2.26535434525988
H          -1.54279572936403   -2.37466775892205   -1.86025876421946
