    26
        -50.45496831  Gyration_radius:  2.51166239096 Dipole_moment: 4.595
 S          -0.10476263854479   -0.01255225143092   -1.34129131343326
O          -0.33523167174952   -0.38308608175957   -2.82795969701498
O           1.07900780614346   -0.74650388621590   -0.90843274085187
O           0.04057502255183    1.42041636264458   -1.21636914275493
O          -1.29406625024970   -0.48445235928399   -0.60282975917379
O          -0.33020416667611    0.51198719773350    2.93007478540861
H          -1.05826071379805    1.07081598842192    3.20629387403191
O           3.05155321048187    0.20101012871946    0.68987805604606
H           2.48029451267013   -0.08763242375646   -0.04394817592050
H           3.10871962773203   -0.54727330526154    1.28847783784770
O           1.18817468548998   -2.62049798240726    0.87901292461901
H           1.15078424130654   -3.47782139406808    0.45163528276965
H           1.23318967862239   -1.94806224463543    0.15101158830845
O           1.00332108686637    1.89413704784850    1.23179945437861
H           1.88340115218281    1.47765037977481    1.14632085347079
H           0.61927366325850    1.84253005019161    0.33356841224130
H           0.22386404970339    1.07107776616876    2.29129682117329
O          -1.00177457703341   -1.51495198814409    1.61051889146856
H          -0.74429683821644   -0.69953139036683    2.21686941147326
H          -1.19030326994749   -1.08245849617776    0.64193605743292
H          -0.14927453853087   -2.04932948270190    1.46846614622317
N          -2.30202639987707    1.31169137513129   -2.77588533151384
H          -1.12709803617330    0.18264386536263   -3.04897402496346
H          -2.99604912393555    0.88665357514708   -2.17451562917884
H          -1.66304536494192    1.83646421832919   -2.18436606704124
H          -2.76576514728265    1.94707532077437   -3.41258850506357
