    26
        -50.46485786  Gyration_radius:  2.56515603987 Dipole_moment: 4.111
 S           0.78377596487067    0.20747321514961    0.44332755382736
O           2.02567354853445   -0.45146428954828   -0.21049065132642
O           0.13542939338497   -0.79207907622910    1.28605936719388
O           1.25032745030639    1.34470882376361    1.22666012695352
O          -0.11733363294321    0.64109448581286   -0.62875814020902
O          -0.00073358014766   -3.37441737760828   -1.73494539084057
H           0.29686138439626   -4.19122648457022   -2.13820575881415
O          -2.22150168180435    0.32277208509469    1.43031961328574
H          -2.49906879275144    0.25982339963782    0.51257420187349
H          -1.39676008047503   -0.21753375191372    1.47896941423606
O          -0.88781683046049    3.14210297451681   -0.90356429201143
H          -0.17391201644875    3.60953536482442   -1.34007070410331
H          -0.63221010796380    2.18881795200406   -0.91745536563881
O           1.22922589273558   -3.11514345145298    0.62418519284260
H           0.75215298427021   -2.34132628793904    0.98939075705164
H           0.37476984430153   -3.36361260596584   -0.82325464475503
H           2.12130058508709   -2.79693247176594    0.46242349455747
O           0.95951414889381   -0.99061255566380   -2.44922584986556
H           0.28269292124064   -0.36271058362674   -2.15171817235893
H           1.74007550361424   -0.70241939179622   -1.15223362042947
H           0.57041372746149   -1.88674139867915   -2.31812991434931
N          -0.93470997394402    2.60879048197572    1.69413907669071
H          -1.59811229291167    1.78024802440967    1.70879842329753
H          -1.05394209262400    3.09696243030274    0.77652949006369
H          -1.04906498360770    3.22080882842367    2.49409029894292
H           0.04295271694625    2.16308165080339    1.64058551401169
