    26
        -50.45496838  Gyration_radius:  2.51164979597 Dipole_moment: 4.594
 S           0.45331944500166   -0.20229362081440   -1.25113634186610
O          -0.10653120946648    1.13845392515197   -0.98412622778083
O          -0.59729734648894   -1.19401187405505   -1.30761565660339
O           1.16096843091144   -0.11745639980794   -2.62680596521946
O           1.48599426832048   -0.51950054453817   -0.27115953507877
O          -1.65708821064431    0.55113828209318    2.43028051333915
H          -2.57464831731301    0.79466758713733    2.29794852366729
O           2.29157030867780    0.97318111652814    1.68892386102704
H           2.08019557722697    0.35659071207583    0.94094995898332
H           3.07832782405047    1.45426476477358    1.42689888754153
O           1.23927789491122   -2.24000117169314    1.80824250074017
H           1.61199751513518   -1.67679827686146    2.49046259170177
H           1.42213001920236   -1.79183913998595    0.96331319144631
O           0.00388496637219    2.05262613517613    1.29593190509149
H           0.91977517579016    1.72918647230193    1.59429591515813
H          -0.06319565275814    1.70933495582856    0.27701405342705
H          -0.69957424802422    1.47429050845147    1.81539457838370
O          -1.34683758823520   -1.68247189929230    1.21071092739551
H          -1.18079841825249   -1.55806194151581    0.25467631949645
H          -0.52535589841567   -2.08791106697596    1.55131380801938
H          -1.54157778986312   -0.35290886965300    1.98648448590811
N          -1.20021560995104    0.27273871425774   -3.63447463494855
H          -1.47137969010325   -0.40631028722616   -2.92813239210465
H          -1.47704806448225    1.18731886778187   -3.30159730887200
H           0.38816799700606    0.06121382570945   -3.23251201160114
H          -1.69406136860761    0.07455921510215   -4.49528191725341
