    26
        -50.45496838  Gyration_radius:  2.51166594811 Dipole_moment: 4.594
 S           0.15319009362026    0.20226341197207   -1.32191751437890
O           0.17420659281875    0.09629087100036   -2.86750691205479
O           1.14705543482057   -0.74345146841145   -0.82670682320464
O           0.42353068967083    1.56649985928081   -0.92666463131503
O          -1.19886992913908   -0.20901526034165   -0.89174830482264
O          -0.83110443418618    0.10718479766133    2.87299883448457
H          -1.53502526516940    0.71272491166327    3.11079697315979
O           2.86581863489246   -0.32437758948293    1.22648046161647
H           2.72617938544072   -1.15500369583986    1.68703969779489
H           2.41912666554998   -0.41825108800957    0.36634579092501
O           0.71297835410777   -2.85906618280333    0.60672472478797
H           0.66735928689469   -3.63046194021492    0.03931127814633
H           0.96736377481016   -2.09842381537202    0.02275516307060
O           0.94463809920676    1.53197425069704    1.69433001251659
H           1.77499266627181    1.01649056168156    1.69038527860088
H           0.73631956021226    1.66857648368334    0.74829031728680
H          -0.10765849647586    0.67429771288451    2.44563537511071
O          -1.44748825145268   -1.58883444651697    1.12835497379563
H          -0.64488555704494   -2.20648988287674    1.04575648975402
H          -1.22656864294166   -0.91597782072087    1.90136843814706
H          -1.39983691850475   -0.99489343045777    0.23084913523040
N          -1.57296692795660    2.01726938202452   -2.86035637900313
H          -1.00717644738552    2.35370006927530   -2.08557251379944
H          -2.41102296897494    1.60529193413270   -2.47071238424796
H          -1.83498944196185    2.79930350693490   -3.44680287371304
H          -0.49516596709452    0.79237887828464   -3.11943460792706
