    26
        -50.45496834  Gyration_radius:  2.51158963029 Dipole_moment: 4.596
 S           0.76565929122554    0.98953276924441   -0.49654019803968
O          -0.47408135654757    1.73328889812733   -0.51260437099195
O           0.66096544557255   -0.22016335702596   -1.33792243106044
O           1.89713491879910    1.85383685193754   -1.10743138402868
O           1.19818007224316    0.62930708720921    0.84905695445267
O          -2.10323203916850   -2.07188304978409    0.48799782709820
H          -2.76291983496548   -2.20506407857633   -0.19449569180949
O           1.72565852513814   -1.74813329015990    1.73679741935162
H           1.59067744440580   -0.80155546270470    1.47181907946487
H           2.66970261768119   -1.90845844058283    1.69026287891751
O          -0.36387224667772    0.55766900213690    3.06255593511130
H          -0.08453301208802   -0.29909309781532    3.39337967110785
H           0.25338778826923    0.77956553303725    2.34290145950692
O          -2.19129552998160    0.42493429273061    1.06291298088110
H          -1.74508506749294    0.54075194359801    1.92473363117941
H          -1.66353103221907    0.96309977206059    0.43932617572507
H          -2.16532962261718   -1.09426096717936    0.74897096958617
O           0.26875255674136   -2.39784686090288   -0.26526048472256
H          -0.72931351023111   -2.32878709671017    0.04822248165429
H           0.45184378175973   -1.47487824321123   -0.78954924387873
H           0.84019340067420   -2.31225513637495    0.57054476205905
N           0.35126716751090    2.12327547234140   -3.17650942188749
H           1.50735992214809    2.08410083326106   -1.99683040080878
H          -0.37488523991580    2.16240600379150   -2.46608187834669
H           0.15980106032450    2.81672286212859   -3.88832817533067
H           0.31749447938849    1.20388775944574   -3.59792856520961
