    26
        -50.45496835  Gyration_radius:  2.51162773309 Dipole_moment: 4.595
 S          -0.03852775987787   -0.63626536849779   -1.18512368592874
O           0.04495080111462   -1.65737856259581   -2.34736778013227
O          -0.71261907482983   -1.32754905765387   -0.06708112325020
O           1.33502413905632   -0.31003208284486   -0.81872767125621
O          -0.80073642495782    0.51720751718294   -1.60814102885923
O          -0.65443428433773    1.41779297965202    2.55296577148927
H          -1.57965070414584    1.52258731438964    2.78037590280577
O           2.51546571390925   -0.82132222670363    1.43159911011569
H           2.16089607176294   -0.62708646794419    0.52559297174636
H           3.02034026123367   -1.63264422871643    1.35457968125760
O           2.27565947071404    2.14921067697688   -0.17615312094070
H           2.01911341852114    1.31251119859731   -0.60309645052109
H           2.76125611316743    1.90268670245414    0.61438725534502
O          -0.39387753689526    2.43082218308878    0.21241086915273
H          -0.53860053222060    1.85626994179214    1.64633552891250
H           0.55937855338380    2.59319834138684    0.07044254942656
H          -0.64222823274977    1.79797163723492   -0.49107468097623
O           0.08676681826695   -0.95822046737551    2.22882182700450
H          -0.29974262091346   -1.16701731248841    1.24523362791770
H           1.09175388231184   -0.91839471931471    2.08419902685598
H          -0.22374935915827    0.02256906632914    2.43071149157265
N          -2.54779128307500   -1.53504311850558   -2.42377949297461
H          -2.37770042141758   -0.55284273795071   -2.22407668206176
H          -3.28608084703210   -1.61298534687969   -3.11154427965090
H          -0.92129853674199   -1.79290158280649   -2.55707013382342
H          -2.85356761508714   -1.97314429879483   -1.56441948332695
