    26
        -50.45899783  Gyration_radius:  2.47155618471 Dipole_moment: 5.012
 S           0.32800555748858   -0.38493667043809   -0.93352893812601
O           1.45680707384104   -0.16386599544069   -0.04211483739273
O           0.28806115743887   -1.67990595630006   -1.55523142596019
O          -0.94213523764414   -0.07272202604769   -0.24125821414043
O           0.47117175338921    0.72523029196709   -2.03548298740096
O           0.06244862704881    0.77288252575296    3.35271868656703
H           0.79978577572372    1.21105952213662    3.78224600913232
O           1.52922594306556    2.42572525157296    0.07635989042051
H           1.70915707941488    1.45408878930845    0.04092099227290
H           1.41342504286622    2.68587624253062   -0.84132634222461
O          -0.78307501891512   -2.60386560721432    0.80454673067601
H          -0.30343310601118   -2.72426876459462   -0.02648219384388
H          -1.27988256936276   -1.78787312726843    0.66400044686004
O          -0.67689564586247    1.89610118712931    1.22933418451109
H          -0.88666240267286    1.06351924890716    0.60385462490162
H          -0.41908635301383    1.47056392821207    2.15740291353704
H           0.18933206943316    2.27209745207804    0.82839596856558
O           1.07996500559574   -1.36608127729224    2.33653086684373
H           1.43266675927189   -0.98303391665984    1.51309486884568
H           0.41695426660438   -0.11627978560526    3.03060818580311
H           0.40268327272760   -2.00068291961104    2.03033835491354
N          -1.36508398796529   -0.42879792935810   -3.46319121851028
H          -0.99628489658443   -1.26231310696561   -3.01034425181770
H          -1.40988687367957   -0.59027432120099   -4.46107566273042
H          -2.30394792134145   -0.27306798509112   -3.11992941649191
H          -0.21331537082925    0.46082492952710   -2.72038722521129
