    26
        -50.46893905  Gyration_radius:  2.40453790809 Dipole_moment: 6.282
 S           0.28108804516027   -0.17221680789337   -1.79035112204364
O          -0.63516145378782    0.82620447031762   -1.18487295520608
O           0.49057669488015   -1.26241427476060   -0.66749398850569
O          -0.36203133667208   -0.89086689320641   -2.85852030777524
O           1.56251491900792    0.42597670492154   -2.08055290817988
O          -0.58204464274600    0.22026007019667    2.37946816760468
H          -0.77074828249579    0.47707061952988    3.28266784888978
O           2.47458723529794    1.76870694741654   -0.06492662139783
H           2.12138514961720    1.31147766729387   -0.87734437984646
H           3.35003388644789    2.07621709932385   -0.30460873571824
O          -1.72600483735423   -2.62926007334605   -1.46698134160900
H          -1.28867539905580   -2.01446462639053   -2.11163956258467
H          -1.03052555231046   -3.24225259057345   -1.21698128670911
O          -0.04152868378094    2.30797621473247    0.91925541194126
H           0.91251606746061    2.41462983125174    0.79083493920893
H          -0.34113489187163    1.93129450993185    0.06478573066306
H          -0.41186677857293    1.06994587414029    1.87457011112266
O           1.91468142343847   -0.47481075377140    1.32965037260094
H           1.12934896381253   -0.98112048304991    0.05146407780341
H           2.24155269179728    0.37894211550681    0.98314547056392
H           1.14744313417959   -0.28244342984536    1.89221436713541
N          -2.11740978521863   -0.66436733517828    0.24119171430305
H          -2.00680527544183   -1.58014787303417   -0.28892292719414
H          -3.09510228698809   -0.41612848648418    0.34946958022539
H          -1.62317873808314   -0.64468958023778    1.14740795654201
H          -1.59351026672343    0.04648109320634   -0.39292960183301
