    26
        -50.46893904  Gyration_radius:  2.40460760297 Dipole_moment: 6.284
 S           1.04017184217940   -0.82646218228169   -1.24522186062664
O           0.08713689266833   -1.49720615209602   -0.17993787547224
O           0.78943095961394   -1.56734681575680   -2.45318656132744
O           0.55656186369052    0.57210799301523   -1.36076628310324
O           2.38660735621440   -0.85578108786700   -0.72515306935777
O          -1.53485423735709    1.16522117635910    1.52938240116727
H          -2.01196075279178    1.74837121327395    2.12071387201815
O           2.63908646541482    0.64044727518305    1.37148870546950
H           2.58771517159956    0.10580188749235    0.53167966318260
H           3.53224444129572    0.51976197798811    1.69723410872143
O          -1.73054367340799   -2.15419505704483   -2.09959046074015
H          -1.66036487794042   -2.86193806779105   -1.45457131318980
H          -0.79275779879968   -1.97945317622498   -2.37280050393711
O           0.60321682673959    2.33213431849660    0.60762790244364
H          -0.74601682811592    1.68661242726503    1.19521459672996
H           1.39810746467194    2.04225109484355    1.07894800027947
H           0.65053430156302    1.83527894816714   -0.23662638340407
O           0.44633517614068   -0.67783103743661    2.23596347834743
H           1.26645868253674   -0.15802690551492    2.12258076303372
H          -0.29629168388433   -0.05336653201350    2.21053850864122
H           0.30509353860155   -1.24965662418730    0.76623483530284
N          -1.94608710660451    0.25602673634308   -1.06188629617191
H          -2.03383556376910   -0.75621042462559   -1.37726654237402
H          -2.57669854290383    0.85976271468507   -1.57867755681726
H          -2.05318583401547    0.38653240355933   -0.04332981674054
H          -0.90610407334401    0.48716390617331   -1.27859232207607
