    26
        -50.46893904  Gyration_radius:  2.4045451758 Dipole_moment: 6.283
 S           1.07463301501572   -1.45373283834958   -0.21591794017178
O           0.91554878955071   -0.21455485188378   -1.18142061230364
O           1.09007649308154   -2.58720843245261   -1.10247854846560
O           2.24808730810834   -1.24141731957909    0.59780047104708
O          -0.15008239911100   -1.44234797067494    0.62249975857446
O          -1.61130209675422    1.84327919021114    0.23907434280096
H          -2.21949638000250    2.53332951776905    0.50601109646127
O           1.95496116045403    0.76957148670330    2.20019244826873
H           2.78980876322970    0.89121427310497    2.65476618552129
H           2.07360086924142   -0.04601233762420    1.63932175202558
O          -0.48322124120398   -1.69822561611783   -2.98742693632722
H           0.10178357246036   -2.16810327060723   -2.33799966584166
H           0.10749951369118   -1.09324818808679   -3.44233446093579
O           1.16278188137309    2.07511322807344   -0.02677091656288
H           1.48217604275688    1.79178986023748    0.85270806438401
H           1.11636011348562    0.66424405154078   -0.74394762269622
H           0.20601495860419    2.22077699387545    0.04751840057581
O          -0.78398796219281    0.49152843112633    2.30579641863819
H          -1.35850967957776    1.35140396568194    1.07568477513512
H          -0.61085818100381   -0.34927671109234    1.83157976657257
H           0.09965802285196    0.77345284071052    2.58459006960405
N          -1.87927469206587   -0.60686008396865   -1.04022678823475
H          -1.41096150867234   -0.90896483730903   -1.94652555512209
H          -2.82642861393616   -0.96482919486065   -0.97702392513351
H          -1.23675287471185   -1.04296238677944   -0.27950162226163
H          -1.85211486467082    0.41204019035323   -0.87596897555204
