    26
        -50.46050473  Gyration_radius:  2.59233337211 Dipole_moment: 4.571
 S          -0.56644418689161    0.10365287148189   -1.13042177241281
O          -1.45757635779619   -0.29133109893136   -2.22930265998276
O           0.58799279958164   -0.79502492521283   -1.04835009245200
O          -0.17752833507586    1.49014011485824   -1.17582123271627
O          -1.42779485894890   -0.15813067674848    0.14468894782612
O           0.52195581430533    2.99993185046460    2.38062469904325
H           1.21942470043388    3.10289325448851    3.03054668521104
O           2.28022216590828    0.13134573437668    0.81024184602323
H           2.41365220553996    1.05221757871522    0.54838800113649
H           1.80301393519933   -0.28270328769034    0.06582437658601
O           0.02171961733612   -3.31800309315237   -0.91096075379604
H           0.33240124372044   -2.37282672123592   -0.89243161861296
H           0.53545010511568   -3.74349123645317   -1.59950273147319
O           1.76342601838869    2.77747528243265   -0.03048296767431
H           1.96614775948375    3.52495856671373   -0.59473305103083
H           0.95649802149642    3.02651991100166    1.50431475031950
H           1.02447411018420    2.29653963049212   -0.48214074819995
O          -0.00237023090004    0.35926828481216    2.14637485760772
H          -0.87043327907250    0.07171358362541    0.98622016134535
H           0.90525753736964    0.16522497209364    1.80543112904067
H          -0.00613189516090    1.32680172213158    2.30985777634213
N          -2.40430928623045   -2.33126944365785   -1.12668916246995
H          -1.53583252458447   -2.92936877219607   -1.04427339467520
H          -3.18976909044710   -2.82175833866907   -1.54056444079639
H          -2.62947218873448   -1.95001415218976   -0.20821958479355
H          -2.06397379021437   -1.43476162158728   -1.71861899938185
