    26
        -50.46050468  Gyration_radius:  2.59225511001 Dipole_moment: 4.571
 S           1.16019248542062   -0.40830806286244    0.31324937346443
O           2.56699432837064   -0.28098374585974    0.71612641570428
O           0.61709225403472   -1.72501623038552    0.53000435414206
O           0.42740654068533    0.61928571964003    1.23159609657334
O           0.97019055008201    0.05104105079676   -1.06514664088395
O          -3.24171360619047   -1.68350508278854    1.26167009480554
H          -4.09166972834112   -1.69799275743481    0.81798827208813
O           1.85869601488021    2.42950715626790   -1.57312784871208
H           1.42954759244771    1.53939149080287   -1.45583964422355
H           2.41893249256996    2.34457546776111   -2.34640992677961
O          -1.55746991544532   -0.43973832769858   -1.80422322977442
H          -1.67089900573757   -1.37683205141768   -1.59602687172138
H          -0.60187092433955   -0.26627493499860   -1.70404455433966
O          -1.48919800480760   -2.90336048531055   -0.42485505091919
H          -1.30621803273484   -3.84393106282420   -0.41095235728620
H          -2.63333590368017   -2.21328207214634    0.70780221609618
H          -0.67670243028307   -2.46929658496627   -0.06057987705796
O          -2.00016930216551    0.62064520152264    0.58882505988213
H          -1.95792648276366    0.36921952576538   -0.36657096897652
H          -2.45435423150931   -0.13180272301878    1.02513653351329
H          -0.58238563629576    0.62197329269684    1.00349773165454
N           2.58823370010209    2.21336118342976    0.94216544251521
H           2.69968863755585    1.09317664068629    0.88790772089230
H           2.40098588860951    2.50151455281200   -0.05820336004533
H           1.73862060033104    2.35116772188218    1.48874031860807
H           3.38733211919055    2.68546509767783    1.35127072080097
