    26
        -50.46050462  Gyration_radius:  2.59219024967 Dipole_moment: 4.570
 S           0.10730665300740   -0.20609039759089   -1.24786463191784
O           0.59859462669074   -0.86770137766275   -2.46385818625562
O          -0.80079509529087   -1.08598535184375   -0.50753321942916
O           1.39256838798835   -0.05432851907275   -0.37520010900856
O          -0.46786712596714    1.09197474650236   -1.49251328408488
O          -0.07051730572971    3.53650166601763    1.55660511108132
H          -0.49998939525370    3.79586205358586    2.37378710855282
O          -1.84061655798062    0.27264399327589    1.55390031562216
H          -2.18854149412982    1.07305036849697    1.13830461956671
H          -1.60365895083851   -0.32023697271751    0.81525833473838
O           0.13704844246509   -3.43622121347146    0.04143183495163
H          -0.51968360551769   -4.06308527241542   -0.26631484970812
H          -0.28043058123766   -2.53920942723785   -0.06455884522655
O          -2.03924224713330    2.58119474977085   -0.06075570840457
H          -1.44769096668638    2.01861065876310   -0.62186360893991
H          -0.78598830331012    3.29279611203240    0.93516644605763
H          -2.53385017740070    3.12583505181568   -0.67475612696994
O           0.70936941781608    0.96216363588617    1.81712228960467
H          -0.22242809032950    0.64386500903829    1.90783230280570
H           1.14217392228780    0.38620479297851    0.52753664021987
H           0.63222247489186    1.93517067179902    1.71651513967835
N           2.15884471004273   -2.46295153372349   -1.32627463421349
H           2.63825758287568   -1.82383553654139   -0.69282111674549
H           1.47215602340762   -3.04397523802395   -0.76964942640616
H           1.50489846851624   -1.78986034445981   -1.95041075899610
H           2.80785920680440   -3.02239232522394   -1.86908564659432
