    26
        -50.46893907  Gyration_radius:  2.40446210123 Dipole_moment: 6.280
 S          -0.24392903335203   -0.82635764494757   -1.60331820540420
O          -0.01557415357640   -0.47111399951633   -2.97904341850124
O          -1.24127410737579    0.07424402217821   -0.97291571208200
O          -0.56122908985535   -2.20719518694860   -1.32621835276382
O           1.12085881676430   -0.48267721584653   -0.88759481423810
O           0.28281808783857    1.29257868468127    2.07235054027571
H           0.23638360270360    1.72687143741330    2.92476288429339
O           1.63454774152258    1.52646119549620   -2.65402159227376
H           2.44429628172354    1.05563318919284   -2.44291406623621
H           0.99929429742478    0.81172073052853   -2.91929966413271
O          -1.05540389879707   -2.59643544443492    1.18427372687936
H          -0.93067332340802   -2.46600475847169    0.20389132341913
H          -1.19373197572830   -3.53742863574134    1.30167678792505
O          -1.91762856715023   -0.01004142206357    1.57869243597634
H          -1.86699714463685    0.04433212769839    0.60079897598724
H          -1.81572004975545   -0.95738449378222    1.75257048096232
H          -0.60112165286199    0.83795326150685    1.93912400275058
O           1.26895824314149   -1.27320945064456    1.55987107427787
H           0.46223755655231   -1.82257585014635    1.61447044150531
H           1.20769029176296   -0.88530253926044    0.02580015364561
H           1.04936764538471   -0.40219391068886    1.92774418827670
N           0.15956402046724    2.15360930980501   -0.56520686227181
H          -0.54158880214323    1.34749819637127   -0.76660304309429
H           0.50418535814115    1.98878424710268    0.39391131935151
H           0.89958282583313    2.01623186894682   -1.31715991729676
H          -0.28491298097457    3.06200231100798   -0.64564267706010
