    26
        -50.46050463  Gyration_radius:  2.59231076945 Dipole_moment: 4.574
 S           1.16398390825914   -0.39504767859213    0.31507996353749
O           0.04527075413654   -0.96168934857283    1.07305736315470
O           1.48450376312914    0.94572620525650    0.73367569510874
O           2.31722361066120   -1.30475639710046    0.32924339916894
O           0.72914390831372   -0.38656383653408   -1.18396125533057
O          -0.80257280505115    3.65947912275619   -0.94965674753664
H          -1.64118637707636    4.11068178870957   -0.83741700328370
O          -0.66321350317799   -3.35373111115894    0.37961480636257
H          -0.67719291621420   -3.87116077730947    1.18650270224128
H          -0.50674285173452   -2.41433707483209    0.66824571291650
O          -1.92092708274988    0.85278321176812    1.20800676112064
H          -1.27438898388472    0.12732158469778    1.30300195783212
H          -1.47171474652964    1.64110656676218    1.54145677756943
O          -1.32729609527377    1.04241543716786   -1.37257095454998
H          -0.10478859470750    0.21685688975180   -1.29410256912360
H          -1.73297191573873    0.93469378892916   -0.47730095131329
H          -1.06617167536017    1.98726525096146   -1.41643527331353
O          -0.01153186922882    2.90639128233022    1.54275896952485
H          -0.46338328411749    3.48149642671603   -0.04927961970071
H           0.57224611673322    2.16341096057656    1.24536760727990
H           0.53410267178872    3.44870643989029    2.11412885684225
N           1.37309167263456   -3.00868542092618   -1.24507988788632
H           1.95651368703561   -3.75749600576755   -1.60247375495190
H           1.03308073587101   -2.39820152450817   -1.98756085165264
H           0.54657151838354   -3.35592479287070   -0.68369044105100
H           1.90835037390082   -2.31074100804779   -0.54061126297626
