    26
        -50.45691238  Gyration_radius:  2.48233904258 Dipole_moment: 6.878
 S           0.92708230600620   -0.60304201797305   -1.60326653989677
O           0.20947460597981   -1.85847905639012   -0.92516852762406
O           1.13481610838384   -0.91591256968403   -2.97381399618740
O          -0.06282548704550    0.49313159592852   -1.41055704928518
O           2.11323127316804   -0.33178536449929   -0.80434170395668
O          -0.74624365525863    0.80359959454913    2.10514947254435
H          -0.78926963352797    1.18648915578746    2.98154756995273
O           2.95669517039715    1.86952858163853    0.40142871004952
H           3.61787383357339    2.30574970619536   -0.13700492541165
H           2.73355074065903    1.03702479574130   -0.06891281610479
O          -2.39576685628050   -2.55772161054606   -0.82252667933667
H          -2.72914186789992   -2.84527736024322   -1.67437095511272
H          -1.42171616986915   -2.54997922791041   -0.89882085915124
O           0.32649335257533    2.40624893023292    0.40738659297731
H           1.29628044674649    2.40966419753609    0.54006414825108
H           0.20129251013593    1.84325606156392   -0.38419817144222
H          -0.31480319921442    1.49721664065116    1.50625268490494
O           1.00132780430533   -1.22074240281285    1.42532920272066
H           1.70171198650611   -0.78533574823626    0.90782034847749
H           0.43157501390554   -0.51685334343774    1.78441030743371
H           0.47623599291576   -1.75623621988706    0.03111207524272
N          -2.16781975029077    0.01622689598383   -0.06433054290410
H          -1.84382226312097    0.18005995577715    0.90730701019381
H          -2.92254811286832    0.65232184466192   -0.29863600161336
H          -1.29538313972380    0.21867564589582   -0.70160573719087
H          -2.43830104015811   -0.97782867052376   -0.23025360752935
