    26
        -50.45691221  Gyration_radius:  2.48245890711 Dipole_moment: 6.885
 S          -0.26625060354194   -0.60762789925592   -1.83322280719829
O          -1.00048637105129   -1.68276793205380   -1.18215902471776
O          -0.34672987539068   -0.54304122544385   -3.25048810107539
O          -0.60255258117839    0.68881804611527   -1.18153311637951
O           1.26900507764289   -0.81677982126744   -1.44593039402588
O           0.08101474867500    0.41588955784920    2.33621448363832
H          -0.06940245296478    0.38930793458345    3.28131328067688
O           3.27414006521404    0.96463891613783   -1.13863973016801
H           2.72655748498543    0.18694700774804   -1.36223143501947
H           3.56294314699215    1.33840615948691   -1.97316584983059
O          -3.07489230467241   -1.64965301394506    0.46272522523604
H          -2.34430517109567   -1.73675730634053   -0.18753518986698
H          -3.88029068942748   -1.83479216549698   -0.02146830008335
O          -2.09766748645701    0.78593443381052    1.02570467714974
H          -1.69358007360808    0.83881881756433    0.13511628422517
H          -2.60258547013773   -0.05232096004808    1.00335312406226
H          -0.82223575157971    0.56505843185887    1.90262175353118
O           0.69872087245036   -1.81937120789369    0.84059609277041
H          -0.12361376606227   -2.04238862436730    0.36935326099015
H           1.19692596210500   -1.25506133928225   -0.55222848069994
H           0.48358745828374   -1.10784979106248    1.47020994710784
N           1.14839234770732    1.81873523107337    0.27747454924943
H           0.99451250988402    1.35764707030376    1.19378187791483
H           0.40618745319653    1.37518021006340   -0.40115419238292
H           0.99436155097842    2.81857975156703    0.35296597933086
H           2.08824391905247    1.60444971829519   -0.12167390443546
