    26
        -50.45691221  Gyration_radius:  2.48246487407 Dipole_moment: 6.885
 S          -0.01715948822226    0.59875080750415    1.85524554665192
O           1.13634243189342   -0.49244453608803    1.68355449627105
O           0.49851517462760    1.83081530587917    1.27644092978830
O          -1.11187335868237    0.06699433431773    0.99652322954014
O          -0.37180509769138    0.63607458664609    3.23078770007967
O           0.14647517308398   -0.33958055207221   -2.34532310999936
H           0.24763261256776   -0.21304475181667   -3.28887758799578
O          -0.47390646391554    3.43794982073857   -0.58942861751704
H          -0.08538601064423    2.91869306451813    0.14786688917265
H          -0.90000488377701    4.19298860459536   -0.18230776321135
O           1.00527555643272   -3.17088805313595    1.37176664541501
H           1.24283020505984   -2.26024725337505    1.63435192432966
H           0.73647413338538   -3.62036315297493    2.17504993842641
O           1.98938527206127    0.55054782487088   -0.49431496038720
H           1.41946233051119    0.28043268250162   -1.23672791803779
H           1.58504930445763    1.34210366077114   -0.09682695099103
H           1.59636012714387   -0.17582790825365    0.85643481596354
O          -1.68501162381751    1.17116464716443   -1.36334089738977
H          -1.33827854124737    2.08320225080661   -1.28537645201807
H          -0.58967870021628    0.28836813575143   -2.04552461902791
H          -1.64490579050402    0.82710005562745   -0.44723696696667
N          -0.67940063440688   -2.02272230283961   -0.38814309257423
H          -1.53765183359900   -2.51227798236490   -0.61804065789810
H          -0.24660033074044   -1.62756192183986   -1.24397282249507
H          -0.90119628776621   -1.15800765365943    0.25311496980217
H          -0.02094329599622   -2.63221971327470    0.14430534106891
