    26
        -50.46893905  Gyration_radius:  2.40451634611 Dipole_moment: 6.281
 S          -1.65757376108647   -0.36484414805962   -0.65822814130371
O          -2.68380526188410    0.39853030397882   -1.31779718480402
O          -1.40119656457974    0.14771160194514    0.71101323983143
O          -1.81594652177552   -1.79969273910357   -0.64095866044107
O          -0.34640247568559   -0.02498610998760   -1.46948092254932
O           2.16907746051693    0.67812976622093    0.93937418186589
H           2.96880003765669    0.83830623818655    1.44141127009648
O           0.06848750801779   -2.95953554377089    0.70150795587250
H          -0.70270981706489   -2.53789300180356    0.23112597811588
H          -0.06565975480360   -3.90460361129742    0.61657843367343
O          -1.27752394891684    2.45869571133093   -2.08998492515356
H          -0.80899619040825    2.08352319921564   -2.83939701766030
H          -1.93063143799001    1.75658207607524   -1.83458019336232
O           0.49088583359436   -0.76494343387414    2.31203085339804
H          -0.32590619234459   -0.42755186586729    1.88683273287416
H           0.51477843371003   -1.69357398085464    2.03783703719883
H           1.56431441728032    0.14471381136064    1.53560196790177
O           1.70436773885246   -1.44324566099676   -0.82148376443583
H           2.08326701382266   -0.75935715468709   -0.24618088263633
H           1.28088263747627   -2.10720560187592   -0.24237766053186
H           0.41372045225060   -0.65096084478730   -1.28393491278348
N          -0.02246594059446    2.22194323671006    0.21235131730196
H          -0.66710150865151    1.40457333811098    0.52625522492272
H           0.93929136252340    1.84918641742230    0.25436182508816
H          -0.36199130548128    2.42440988637884   -0.77534325211446
H          -0.12996219451514    3.03208810037980    0.81346546956738
