    26
        -50.45691241  Gyration_radius:  2.4823828157 Dipole_moment: 6.879
 S           0.96619311931265   -0.45952650086887   -1.62767769716502
O           2.03404155537256   -0.50909145336781   -2.56402585988098
O           0.17275262838051    0.90489508770622   -1.87232364738684
O          -0.02311370312516   -1.52458478352554   -1.70259198480798
O           1.44307097146663   -0.32260235209117   -0.22315889472771
O          -1.40718944282068    0.22130559908963    1.89880148598265
H          -2.05812156385546    0.07153820973986    2.58466114117668
O           0.64433089784534    3.40568285441649   -0.97205964072737
H           1.41772540606850    3.79954741599170   -1.37973092435730
H           0.42094310895281    2.62162832923246   -1.51054918852736
O          -0.65640491222515   -3.45925906639318   -0.00948195029728
H          -0.43304590492036   -2.80456616949783   -0.70630105588385
H          -0.23282010170897   -4.27704499987020   -0.27260723890811
O          -1.97301101738015    0.01520453439858   -0.79401693685031
H          -1.89792767368920    0.06321940174827    0.17608757284623
H          -0.73370940704397    0.68179450214453   -1.51939917339872
H          -1.58101821401683   -0.83241981089195   -1.06937251022489
O           0.30499098999488   -1.68982640387105    1.76523874848469
H          -0.10634196210914   -2.45653213169854    1.31676833349665
H           0.87375121803226   -1.29276505205205    1.07380842310511
H          -0.77826818106817   -0.57244528598497    1.91740676541806
N           0.71866638428293    1.71213656016060    1.12061946760205
H           1.09168215127905    0.86167242684774    0.53248165326989
H          -0.19926507562016    1.40705566933819    1.49509911173602
H           1.36085078703288    1.91697461660096    1.87873642003564
H           0.63123792156276    2.51800880269812    0.46358758998993
