    26
        -50.45691220  Gyration_radius:  2.48239392037 Dipole_moment: 6.877
 S           0.47024074807204   -0.45944930326790   -1.83410995311756
O          -0.96461164520002   -0.66915904105716   -1.96118045541451
O           1.27664174559240   -0.86062822660571   -2.93326316013995
O           0.67593150232176    1.11151841134592   -1.63280694694882
O           0.94251623332069   -1.02759686675771   -0.54076328303296
O          -0.96233127841409    0.45871425952381    2.12072796947319
H          -1.56546993868498    0.53413545123371    2.86040229086886
O           2.58374567164019    2.48686409840209   -0.30744542910213
H           1.92407974897755    2.17124985333958   -0.95543064885558
H           3.43328798961907    2.45147220350038   -0.75072564887499
O          -2.63610960752137   -2.24325700979159   -0.64222708808110
H          -2.80802238626577   -3.03757435108003   -1.14900423268685
H          -2.06394618764436   -1.68146458916852   -1.20890476600325
O          -1.55627366372489    1.38913714557716   -0.40840788421959
H          -1.45977502994376    1.10942684263960    0.51974939374853
H          -0.17443212736326    1.37402494107551   -1.18101026574536
H          -1.76737910194350    0.59231665820016   -0.92653331531987
O          -0.77676936598045   -1.95989956970605    1.27330995402940
H          -0.94964789971322   -0.51858297633737    1.85494508488820
H          -1.57508395173853   -2.17656266118279    0.75010961317779
H          -0.09011816893324   -1.79617334305124    0.59439537594137
N           1.62501463860463    0.56716311902620    1.31983741598889
H           1.39516990110127   -0.13293275567889    0.50425150325902
H           0.71550603734827    0.76715455180207    1.77657663988377
H           2.26462114831847    0.13422537987719    1.97757261657663
H           2.04321498815576    1.41587778814032    0.87993521970792
