    26
        -50.45691224  Gyration_radius:  2.48235592465 Dipole_moment: 6.880
 S           1.09594152346624   -1.55095966161490   -0.43879492523100
O           0.32735024353585   -0.62589478712452   -1.31749247071981
O           2.12359131105200   -0.80372289850564    0.27145787829010
O           0.01856386534626   -1.98228115094580    0.65846207807401
O           1.51258573842377   -2.72798679670378   -1.11729601270938
O          -0.98357769780363    2.04412389434328    0.70004913669497
H          -1.12627318406013    2.92865673933830    1.03739734448236
O           3.12410047949498    1.61623867806831   -0.11929909332594
H           3.95729677119737    1.55503100056892   -0.58768539694109
H           2.83986418201702    0.69093095653799    0.04559240906188
O          -2.64018482276347   -2.40307258658250    0.45395008377370
H          -1.68923836256568   -2.45407668745834    0.67246348422585
H          -2.84677695676876   -3.20292422372308   -0.03296243913482
O           0.71264746524712    2.01234931694810   -1.22942103414525
H           0.64130627023488    1.05750318263181   -1.43527733239603
H          -0.30866540773431    2.12518918131469   -0.05092910413291
H           1.61505144263462    2.10483448176118   -0.86174112766879
O           0.42153998831665    0.11031467953044    2.07860406851460
H           1.28626358610197    0.06193749567241    1.63374709528291
H          -0.05573968498054    0.86765132436997    1.69432374145213
H           0.09758504750533   -1.24372634184127    1.32503049740674
N          -2.06048987843504   -0.02801599851699   -0.67566941109962
H          -1.91552674987935    0.76548672136523   -0.02356854463242
H          -2.48501562130727   -0.85651129679190   -0.20444750615661
H          -2.60837144710845    0.26673147648511   -1.47697014391085
H          -1.05382810116677   -0.32780669912737   -0.99952327505532
