    26
        -50.46893909  Gyration_radius:  2.40447066535 Dipole_moment: 6.283
 S           1.48967629000324    0.68792712258822    0.78864780165044
O           1.07104113799924    1.82566164288963    1.57262889462257
O           0.99103074920900    0.90263389953488   -0.69402717048387
O           2.90612354653880    0.47315927864970    0.65226545181323
O           0.79998045797202   -0.54363231513525    1.24745316426794
O          -1.91264481804819   -1.10967649007204   -1.07632401645307
H          -2.72899318791434   -1.53981640900443   -1.33309546367622
O           2.95500599426680   -0.70954482712638   -1.67523068140517
H           2.81753777239379    0.04047995506439   -2.25873231824576
H           3.07895166654597   -0.30152544886838   -0.77918780079641
O          -1.50512482371718    1.94664836016350    1.78851323741075
H          -0.50984070663260    1.89198246592481    1.77449521618142
H          -1.71021886799185    2.75508466531608    2.26050711855293
O          -1.81816485456667   -0.77560413856973    1.50485720143903
H          -2.04745890610519    0.13163215016697    1.75457167324993
H          -1.93372777707323   -1.03981108905014   -0.07613435697106
H          -0.84100136456759   -0.78961890388534    1.58698684138750
O          -1.46768602923439    1.64525986317374   -0.89503725650697
H           0.06933851639130    1.29064396225737   -0.75604151878076
H          -1.79492197996590    0.75269163660826   -1.09091828601189
H          -1.67036149658368    1.82885850270991    0.04352448258767
N           0.74218145715358   -1.90475337924744   -0.89682230277234
H           0.83143203992931   -2.91338002316397   -0.83414766451000
H          -0.17219764063149   -1.63344911114098   -1.29191797064572
H           0.78655263688722   -1.43910493383176    0.08441130225982
H           1.57349017766896   -1.47274642595533   -1.40124558815020
