    26
        -50.45804777  Gyration_radius:  2.48940373235 Dipole_moment: 6.740
 S           1.37560518966773   -1.16355320595266   -0.61286883587533
O           2.42448043239374   -1.74279966800441   -1.37589966766963
O           0.77736949465380    0.03002899893271   -1.27016479901819
O           0.28842740734201   -2.07010909345120   -0.23081937257316
O           1.98534071507187   -0.60249941270976    0.73287341591889
O          -1.65447048347326    1.34871207102787    1.07530661405302
H          -2.08226934765174    1.96352977929767    1.67187970812521
O           2.85882128939800    1.95481430116250    1.32397207714551
H           3.67359882025133    2.16818261861452    0.86608467015190
H           2.72102598763744    0.99974348374782    1.20945960689118
O          -2.03720489009085   -2.57414729857810   -1.29001133004097
H          -1.93633944306785   -3.17340478109143   -2.03103469305635
H          -1.15335396070667   -2.54016879487104   -0.84931435553205
O           0.49181776762996    2.33868104552076    0.03267549158711
H          -0.82466392785936    1.80874701900010    0.73635638974710
H           1.27264579008480    2.41743533704305    0.61234850292425
H           0.69959111424146    1.58069646777182   -0.55149729156016
O          -0.23666359266214   -0.83004144018852    2.01981068448367
H          -0.33995828361748   -1.50262446927008    1.32213305807877
H           1.21616467705200   -0.63937844795777    1.36417464246259
H          -0.82195222271449   -0.08789483557178    1.78774583536215
N          -1.77416219391862    0.07139885203838   -1.31985469235198
H          -2.14237971018014    0.61142207078724   -2.09522303377353
H          -0.68020226965715    0.04382356278092   -1.35987682612090
H          -2.01106068119678    0.51782461292883   -0.41551298531581
H          -2.09020769862638   -0.92841878300571   -1.35274279404161
