    26
        -50.45804778  Gyration_radius:  2.48940900694 Dipole_moment: 6.741
 S           1.45448056044837   -0.62878630549841   -1.05393394603979
O           1.13258839664479   -0.89160406023858    0.37500397310039
O           2.61088954184893   -1.32672319551532   -1.49379026156243
O           0.20311358004207   -1.18395317995720   -1.84355904415420
O           1.46719855339141    0.82252925069094   -1.26197225507500
O          -1.98230695713464    0.84554902148642    1.03354464440484
H          -2.90031324427043    0.98095791530722    1.26985137960480
O           2.10268589624906    2.81714602542911    0.28793841945434
H           3.05531156434283    2.91689388814612    0.31890575696382
H           1.92492472111468    2.15009701267546   -0.41918263358769
O          -1.58954003226128   -3.15973736232454   -1.11215485162380
H          -1.18904689806095   -4.03048788675332   -1.13413138442540
H          -0.96321026775269   -2.55793648273404   -1.54784567007399
O          -1.12802739413662    1.00928019971497   -1.59183528811942
H          -0.42698798338973   -0.41291137422137   -1.84287028433354
H          -1.51016844674419    1.05451199430196   -0.69789766979454
H          -0.20839783797150    1.32472396562634   -1.52430434330576
O          -1.30908681766731   -1.64647825475987    1.13480422886056
H          -1.64292128887555   -2.22683584370761    0.42511019721307
H          -0.36192169872400   -1.52156680064842    0.91975623476638
H          -1.81774635107426   -0.14731864402333    1.08075796494198
N           0.61232331051373    1.18464993234901    1.76533538758977
H          -0.40516815346093    1.30872271218310    1.61504205550229
H           0.81792374312108    1.05838926793304    2.75031890992780
H           0.88890099526849    0.28843852859568    1.20018464012198
H           1.16450249853917    1.97244968594320    1.34692383964380
