    26
        -50.45804779  Gyration_radius:  2.48940391619 Dipole_moment: 6.741
 S           0.63471317838493   -0.12332770925293    1.78977964034041
O           1.39417324499069   -0.12082330398616    0.51004023692910
O          -0.39896626586686   -1.15994053665102    1.70782644994141
O           1.47991269582693   -0.18162645383512    2.93000203743503
O          -0.12152900917981    1.26437242711346    1.79662687625693
O          -1.07442755712182    0.28613588022388   -2.11584519244016
H          -1.53821068129200    0.67637775962855   -2.85716127123320
O          -0.49351096756179   -3.45838353972144    0.48612271123614
H          -0.01745505793078   -4.11797495158837    0.99278986888999
H          -0.54433432104214   -2.65936782315279    1.06538590750503
O           0.55210238224465    3.62840024141993    0.52783692060184
H           0.27656531229726    2.91768003582025    1.13052055045445
H           1.31743815319175    4.04318091554443    0.92946352194931
O           0.94444221292944    1.71514548428966   -1.37036975526898
H          -0.32329327610266    0.91634420007052   -1.88397127651934
H           0.75136279891566    2.54451644571229   -0.89415946572619
H           1.26916046557184    1.10687870964625   -0.67499933153382
O          -2.12094619368326    0.36120041195552    0.44308454933996
H          -0.96063259899602    1.06887011879160    1.29741433069497
H          -1.87939826889609    0.31528525616691   -0.49858590976643
H          -1.78147711660133   -0.44980049066574    0.86359847823725
N           0.52687284012082   -1.73721700607865   -1.26466961606561
H           0.10103775007199   -2.54686273098092   -0.75109164647247
H           1.24990597059983   -2.03533982251991   -1.91023089426459
H          -0.19210807207710   -1.17321497288488   -1.75280793255368
H           0.94860235120604   -1.08050854505941   -0.49659976796692
