    26
        -50.45804773  Gyration_radius:  2.4894290861 Dipole_moment: 6.741
 S          -0.40593049240111   -1.72526139809578    0.69374548490924
O          -0.31355856820972   -3.08750291981241    1.08564364754253
O           0.79033525559866   -1.26073464582762   -0.05965655347619
O          -1.60115182645810   -1.36145865924344   -0.07363234683140
O          -0.41876619721906   -0.82882796369135    1.99534642850279
O           0.28694115940297    2.28174447570038   -0.65150357017469
H           0.44028331624082    3.22639081863404   -0.61943471639091
O           1.68818810654642    0.42829635806873    3.27299091128373
H           0.89348536027201   -0.06557504966714    3.01063413074422
H           2.26498372003459   -0.19915052865964    3.71193630244717
O          -2.05274358209116   -1.14478148334078   -2.62967555724404
H          -2.03378913840563   -1.28087642803524   -1.65108895323660
H          -2.19801174999746   -2.01201815929063   -3.01073429673563
O          -1.70528069937088    1.09043364344817    0.85202478845202
H          -0.91480742395845   -0.01521001822171    1.70641148678868
H          -1.09111272819958    1.61078642515140    0.30503725916475
H          -1.97882663308136    0.32148911793328    0.31937252184941
O           2.09606656832595    0.95847042550387    0.63293009536501
H           1.76574933356783    0.06322539121019    0.41298424898255
H           1.02264669755808    1.85350177244368   -0.11250790944454
H           2.06541111790822    0.99392037536677    1.60750200006122
N           0.28460099497771    0.04488658024632   -2.19371715117212
H           0.19237100440344    1.01717449176012   -1.84791208418923
H          -0.62614175470018   -0.32308052007636   -2.56219495057619
H           1.02740346449528   -0.02372589685635   -2.88069455159428
H           0.52165468477009   -0.56211619465401   -1.31380670502791
