    26
        -50.45488976  Gyration_radius:  2.47850623085 Dipole_moment: 2.643
 S          -0.33767841712137    0.34416700972460   -1.09980525382884
O           0.12111928391408    1.57012603614323   -1.71227823729509
O          -0.95724751768844   -0.59248293808631   -2.16595019680651
O           0.77744887142950   -0.36408526262852   -0.45984386381280
O          -1.40718182587729    0.57469077159928   -0.11424183151755
O           0.08447149404034   -0.22065178322816    3.33748545885519
H           0.98106227141593   -0.20120896920018    3.67770093098142
O           1.68312748388563    1.89814516883218    0.47846815890233
H           1.61742533954710    0.95296565178895    0.21043042313932
H           1.37666496553705    2.35503533774062   -0.31912666627037
O          -2.51770392079065   -1.74008945111688    0.69897290410182
H          -3.26887022771881   -1.49505444652653    1.24200878132548
H          -2.21465923500705   -0.92138979923771    0.26371074378376
O          -0.42363839271624    1.73841210469575    1.87187504433115
H          -0.95860771597570    1.31035906840599    1.09174638388664
H          -0.24382662987110    0.94327916332206    2.55966656692007
H           0.48721841146316    1.94223342083241    1.42286881789097
O           0.05171146110892   -2.00814748755707    1.51271295322251
H          -0.88572444966308   -2.16518728142166    1.28939993629130
H           0.40679292680875   -1.51190407157226    0.74674094777769
H           0.04975897661471   -0.99131790403653    2.67065763594330
N           1.22314295230503   -0.31062078657308   -3.55717235990769
H           1.95805661799889   -0.79570237778221   -3.05896549551140
H           1.46263862511959   -0.27857894888289   -4.53974715581863
H          -0.23597907982810   -0.67036388839096   -2.85303935305172
H           1.17047773107929    0.63737162317679   -3.19427528352537
