    26
        -50.45781626  Gyration_radius:  2.44475427105 Dipole_moment: 6.399
 S           1.29193629765673   -1.34792671324104    0.30641598757643
O           1.11312471707926   -1.32109533522767   -1.16503200100171
O           1.18053038647252    0.02842893099912    0.81196247845616
O           0.02410529832349   -2.10162797773178    0.87759691216107
O           2.46221174198091   -2.02317540864996    0.74649555393506
O          -1.85665099624619    1.08280642927344   -1.01485720404904
H          -2.62246679851299    1.64597765312536   -1.13097936650794
O           2.42158281671471    2.10459199123238   -0.16306035416499
H           2.02595138330269    1.38953465896782    0.39009538367478
H           3.36382191342109    1.92971403332767   -0.18176246274659
O          -1.58669369279774   -1.15422187669806    2.93331306713459
H          -1.13896561154864   -1.17947827219043    3.78065656176055
H          -1.03079752205295   -1.65296732565480    2.31249417519078
O          -1.14760743886585    1.08540302000949    1.44129365948424
H          -1.54047465179221    0.40206970606488    2.01584872872696
H          -0.22588131269463    0.77759298748331    1.29720832889529
H          -1.64222250147521    1.10473765083259   -0.02322006979112
O          -1.50173829773809   -1.67011215967066   -1.18227308490040
H          -0.61469460909133   -1.66660324627339   -1.58005712327699
H          -0.66662905965550   -2.01757768022410    0.17030242018063
H          -1.80023130068676   -0.74492831948196   -1.16704961342379
N           0.69459202812193    1.08962648766321   -1.92151058409771
H           0.82292863217313    1.23861530953397   -2.91663443800783
H           1.35287503511508    1.67669463821518   -1.35213221817124
H          -0.29427689197963    1.26354612887615   -1.63791474677077
H           0.91567044477458    0.06037468943984   -1.64720000026595
