    26
        -50.45781627  Gyration_radius:  2.44482185915 Dipole_moment: 6.398
 S           1.27790998988972   -0.37235799387362   -1.34455148040564
O           1.36171937310731   -0.42885686947693    0.12240105683852
O           0.19688090210425   -1.45782577720571   -1.73866188290861
O           0.69247789455589    0.93419372072063   -1.72922598106163
O           2.50044563888680   -0.68662003376959   -1.99715405647271
O          -2.02791673867019    0.79066576759200    0.95412338646773
H          -2.77485982065527    0.87763386211834    1.54713741180803
O           2.34990330382721    1.43556961733178    1.65514434348349
H           2.10140006885579    0.60315779399638    1.18705882733128
H           3.24214494994155    1.63940825034016    1.37040473672639
O          -0.73536183753788   -3.45137442483625   -0.04307558100172
H          -0.06855252449350   -4.11889847399463    0.12658783402631
H          -0.39458770062510   -2.89832164236282   -0.76498993262331
O          -1.83191629241300    0.16783859069850   -1.74919860781115
H          -2.08131237336088    0.36844677757395   -0.83116654926112
H          -1.09308305286219    0.76014258324909   -1.96933202695011
H          -0.66185981417789   -0.96306084830021   -1.78342279499190
O          -0.65559658275243   -1.27017783898840    1.59106046395495
H          -0.89427197985548   -2.11130217971998    1.15863281716959
H           0.17664739953976   -0.99842455247673    1.14548628656261
H          -1.54198287673293   -0.05315809720137    1.23981444569409
N           0.16216749290692    2.27737362303750    0.38587556188302
H           0.00930856972214    3.26631840988646    0.21987073565207
H           0.41554667922979    1.75928196827278   -0.53648624165182
H           0.97441685000648    2.11199395505059    1.03002581963740
H          -0.69966751843296    1.81835380234230    0.75364141790871
