    26
        -50.45781623  Gyration_radius:  2.44483414718 Dipole_moment: 6.401
 S          -0.06433526671135    0.74206826296481   -1.73947974249816
O           0.86436202508854    0.96101556031863   -0.62062266066804
O           0.21301192315812    1.54876831460776   -2.87592079949530
O           0.11911196049106   -0.77784055945728   -2.13711391564672
O          -1.45026312634396    0.85756300497237   -1.22590709110730
O          -0.73394584469186   -1.21769117082423    1.90455250311382
H          -0.71339824780199   -1.74091054997697    2.70640375139146
O           2.24028894424475   -2.38054340493301   -1.33065349829636
H           1.53367770875030   -1.89607909334207   -1.78798293646848
H           3.06216280923579   -2.12843244653726   -1.75496682987727
O           0.74467724567847    2.93076901127305    1.08451936030337
H           0.74264025006983    3.76219083962210    0.60757630747918
H           0.99229354852523    2.24157173221703    0.42309950180825
O           1.62755516619554   -1.01229216780013    0.94704783001280
H           0.22088150110965   -1.19536164137308    1.56165102612124
H           1.90606393148427   -1.69381945635872    0.30725407427789
H           1.46124256317256   -0.21728142171770    0.39444672550892
O          -1.78906652867247   -1.68875661803204   -0.62485508056160
H          -2.09147178016357   -0.78439757915102   -0.81394777638282
H          -0.57085308783164   -1.26584335306242   -1.61729273500975
H          -1.48692519104466   -1.69041824123030    0.29926778121790
N          -1.38260757990885    1.33779136826144    1.28882627559164
H          -1.45376412742211    1.18151209056271    0.21462583424552
H          -0.59924974012290    2.02455153140890    1.41872203680007
H          -2.25646206754473    1.68853516989279    1.66607215392514
H          -1.13562698894374    0.41333083769524    1.70467787421518
