    26
        -50.45781627  Gyration_radius:  2.44476313409 Dipole_moment: 6.399
 S           1.87951610801274    0.05639258647934   -0.20871896307427
O           0.87525794230197   -0.91082457109236   -0.67593558909140
O           3.20199610485919   -0.24734181598381   -0.63062380135963
O           1.41720022215442    1.41910036081580   -0.56529275979738
O           1.81956199587315   -0.01607506942247    1.37016080793789
O          -2.17909396242598    0.76775808775906    0.55867959114397
H          -3.09820818037606    0.76338356362241    0.82762679370530
O           0.58935198059129   -2.04538980068101    2.81485850326159
H           1.07148871291241   -2.87183037814807    2.75476516770540
H           1.16526806714540   -1.36169747416372    2.43532244407925
O          -0.18194419784593   -0.96290163671227   -3.05939146015047
H           0.51664718401343   -1.00436417697152   -3.71437408790107
H           0.25073070079645   -1.14848509180063   -2.19212202484616
O           0.10049266630698    1.91114736568208    1.66707502453942
H           1.17749950059555    0.69178956398569    1.63685545101834
H           0.54334053415045    2.15755389532176    0.83745792102492
H          -0.78317097149181    1.58809252256657    1.42195004393463
O          -1.19559870212693   -1.57894155408693    0.80691141615536
H          -0.43641481213097   -1.45253764102649    0.19639013117540
H          -0.78043598631829   -1.79651339461350    1.66228503050846
H          -1.84142765209718   -0.17801599766652    0.70437463692780
N          -0.84890211066340    1.25967860065099   -1.74786081576880
H           0.13313495449737    1.36679745927317   -1.29227368577285
H          -0.77046206717156    0.42958901574681   -2.38581765576654
H          -1.51476788044423    1.06463447183737   -0.96871284686274
H          -1.11106013111845    2.09900111862814   -2.25358927272697
