    26
        -50.45488980  Gyration_radius:  2.47829756495 Dipole_moment: 2.636
 S           0.59847591220949    0.57651391371835   -0.86817075744070
O          -0.70919776060952    0.09751201364268   -1.34656111002912
O           1.70081194017895   -0.02031357485840   -1.58743382856608
O           0.57889230043947    2.10946342522139   -1.08661778425752
O           0.72004972803701    0.32005321221003    0.57198171636114
O          -2.20184892127805   -2.04106534568347    1.47694422955595
H          -1.80460052308720   -2.54625493787897    2.18899934779466
O           1.43808853527360   -2.14161394589481    0.07755684916337
H           1.27109996847661   -1.28861113163319    0.54000306317877
H           1.89438825374692   -1.84862191213736   -0.72551876632444
O          -2.73134305813223    1.52017057777226   -0.27955904928105
H          -3.52600187301409    1.22844956604195   -0.72962870717428
H          -1.98075034382904    1.13901931204422   -0.77245359191566
O          -1.58919033669156    0.40152388731717    1.90686846183804
H          -2.13525632922759    0.93922143566481    1.30197220571777
H          -2.03055137968175   -1.05970775842788    1.69445018519107
H          -0.68701969552643    0.44664312588277    1.52858706680970
O          -0.97082700743215   -2.30178609253728   -0.68193580368145
H          -0.96105658108898   -1.33508079388405   -1.06033728351635
H           0.01261659466855   -2.42615782144014   -0.38136800455955
H          -1.54962909105704   -2.24849601779500    0.21237104264501
N           3.07437383347134    2.15799664251179   -0.35201840825233
H           1.49946446999163    2.39279393251491   -0.82109506124017
H           3.89510415694358    2.70165509080953   -0.58558540241398
H           3.09351214605509    1.94912646780424    0.63770537413204
H           3.10039506115458    1.27756669903530   -0.85915599374299
