    26
        -50.45899787  Gyration_radius:  2.47055859466 Dipole_moment: 5.010
 S           0.49900402367760   -0.41153347254768   -0.84691037925057
O           0.40050854810049   -1.65432696816119   -1.56164882831774
O           1.12863978331037    0.68476878111812   -1.77924051399827
O          -0.83513323402961    0.11706126002958   -0.48552217365770
O           1.36497958307694   -0.43998989410505    0.32219358164818
O          -0.71068815567421    0.63500510569527    3.30273641315906
H          -0.05355566516611    0.90906297717128    3.94552178346076
O           1.85885718229180    2.08216838435118    0.67008108932421
H           1.86730882102411    1.09579883362581    0.60216358613029
H           2.04458677575457    2.38948042874574   -0.22114361663421
O          -1.41313031663182   -2.43255277013718    0.35248166749966
H          -1.70979090852462   -1.53417485484342    0.15959337611577
H          -0.75415812912747   -2.60737927325001   -0.33363014521965
O          -0.63499983453658    1.94885641889403    1.16133213523508
H           0.35950821728171    2.16438275047573    1.03241047606122
H          -0.81064157081901    1.19263837852526    0.43575318002831
H          -0.71800442610852    1.45154026498708    2.08567986039701
O           0.15264240989884   -1.62488982144358    2.41310195189143
H          -0.44377564826237   -0.29441562303126    3.01152141671334
H          -0.51624695121655   -2.10826565708625    1.88945665771208
H           0.77711238246759   -1.28985504474335    1.74457924667161
N          -0.44565194131383   -0.04034093081908   -3.71259855222130
H          -1.39708349819083    0.28344053086745   -3.59638849319672
H          -0.36141103302560   -0.94572874653306   -3.25564516684957
H          -0.26239136758369   -0.15333444168083   -4.70131265642785
H           0.61351496308696    0.58258337416933   -2.63456591622974
