    26
        -50.45899784  Gyration_radius:  2.4705777395 Dipole_moment: 5.011
 S           0.09047738264586   -0.40874606665171   -0.97947618682666
O          -0.52385344897497   -1.51252567658182   -1.66461806918689
O           0.63331225710899    0.62701416740203   -2.02829699723445
O          -0.89252374484291    0.34724955629859   -0.17196189158968
O           1.25006148183857   -0.75385463768077   -0.17098180094392
O           0.55016118831120    0.39068605040432    3.37065953947186
H           1.42317462274734    0.44304362037831    3.76462282899301
O           2.41558174692649    1.54905028021090    0.08337450287798
H           2.16648516668678    0.59779421604600   -0.01971454904688
H           2.37574215945401    1.90939760736329   -0.80643581893452
O          -1.76589729983356   -2.09944892706902    0.71644795772355
H          -1.42042795402232   -2.32952203139906   -0.15724137666855
H          -1.88641866672768   -1.14267660706378    0.66892958608997
O           0.25190527176626    1.89422934762203    1.37872259690234
H          -0.32046415257451    1.28057566694114    0.72673416517831
H           0.35115878809235    1.32364223108135    2.25808802165828
H           1.17478468885887    1.90653090422576    0.93126800025733
O           0.51886021363824   -1.88449041927468    2.15981105199031
H          -0.37679540565004   -2.15117428520852    1.87347374358573
H           0.95948837393655   -1.61611946994879    1.33341175958370
H           0.48011738009411   -0.53477483460874    2.97248360497013
N          -1.59853618237781    0.47775075872713   -3.34691166008709
H          -1.77132018847856    0.44108019025688   -4.34321733890308
H          -0.13553462517824    0.73452437214828   -2.66445428161707
H          -2.35757878948002    0.98138824783248   -2.90681590082790
H          -1.59196027399760   -0.47062425128153   -2.97790149741385
