    26
        -50.45488967  Gyration_radius:  2.47876767073 Dipole_moment: 2.645
 S          -1.17233297312992    0.15338835040805   -0.20459965145776
O          -0.93975962235649   -0.63424086179260    1.01758477662881
O          -2.03460831010113   -0.75186338955341   -1.11834531092636
O          -1.85779313308975    1.39719864916375    0.06343615536501
O           0.10641014994701    0.40225619112106   -0.88108167039930
O           2.85183892674226   -0.61250482040303    1.64018721764810
H           3.54700353095429    0.00315679836716    1.39995692394876
O          -0.04194826564825   -3.10802045444368    0.44455425848417
H          -0.52335251423219   -2.27594331422899    0.61018499344843
H          -0.02414141515852   -3.58029240582896    1.27877486528624
O           0.56769727151378    2.41442498898980    0.71804279672688
H           0.62366522291723    1.78376106468568   -0.03597970959299
H          -0.37949722028932    2.61723632736696    0.74051960766380
O           1.91860290271056   -1.52847687412981   -0.55422266415646
H           2.53810069551827   -1.04141047726141    0.76982820723964
H           1.34599598356001   -2.28461713240601   -0.32243475759043
H           1.29528232617824   -0.81881476561030   -0.81308524841392
O           0.77474312318420    0.54362901673533    2.41012940663365
H           0.02187839948561   -0.00855597702666    1.95592722867556
H           1.68179861740721    0.04044277456723    2.16151275402601
H           0.76784043575170    1.41718082319757    1.85370030222994
N          -2.24988869183040    1.25363174903198   -2.76172691050484
H          -1.34100097566496    1.39613466225383   -3.18275691909255
H          -2.23600345997614   -0.16555372325883   -1.90202213662020
H          -2.28145904270173    1.78405104656961   -1.89524966225222
H          -2.95907196169936    1.60380175347223   -3.39283488298302
