    26
        -50.45490054  Gyration_radius:  2.49085978528 Dipole_moment: 5.144
 S           0.14520778822039   -0.71292311511342   -1.03489686483195
O          -1.32956484953888   -0.86449685505383   -1.56890437439911
O           0.23017718967092    0.70679138433478   -0.60216013294746
O           0.20127619719854   -1.57893364473272    0.13432403107451
O           1.07023338595808   -1.00835302436783   -2.08154527529013
O           0.16493770268653    0.65000181711155    3.26030458121274
H          -0.23455337756372    0.07581706440332    3.91645639891114
O           2.67509755457267    1.26628182825952    0.38624246722510
H           1.85616952518740    1.09667567217993   -0.11542337913347
H           2.60373096726795    2.15920755060683    0.72946614126900
O          -2.21983092814240   -1.37495457520297    1.03688365875017
H          -1.30753042779457   -1.64958492564627    0.76739514068901
H          -2.74715195522808   -1.47615889614322    0.23967436334118
O          -1.34616911869680    0.99518607178542    1.28440436067839
H          -0.73454554782527    0.93092269084552    2.14121709460861
H          -0.67785663466124    0.95590943806291    0.45919147134291
H          -1.83992108896458    0.09148528440556    1.24062260534778
O           1.93509149272227   -0.75028439929318    2.03772071450857
H           1.39523392424799   -1.22463631666451    1.37891241269801
H           2.45042491296081   -0.10133840292744    1.52013785319961
H           0.91969053303211    0.11551422421487    2.84331099253412
N          -0.66882219074935    0.42266567155324   -3.72157469547229
H           0.24084206192247    0.02311314157288   -3.49422838889482
H          -0.88673422976907    0.21049290783526   -4.68662743585785
H          -1.29003202415006   -0.38569209459601   -2.44965752129954
H          -0.60540085256902    1.42729152257292   -3.62124619926234
