    26
        -50.45531814  Gyration_radius:  2.42693614241 Dipole_moment: 5.996
 S           0.88548626773988   -0.19524772044259   -1.67284291637914
O           1.36827973402525   -0.83373427497920   -2.85077643831783
O           0.66508220450723   -1.34899005613864   -0.60998589068023
O           1.76549736255999    0.78692755588428   -1.05244162098486
O          -0.47535456994300    0.38344187971362   -1.85964541052750
O          -1.13978425628797    1.40517268263542    1.59631090943369
H          -1.37292341354495    2.07223195086192    2.24293106417697
O           3.15095237622776    0.50221805239338    1.19150739907647
H           3.92974179847430   -0.02057783091651    0.99600560666929
H           2.73653763025926    0.70388148977077    0.32514012131483
O          -1.99733226874131   -1.18301763636573    1.21880384647398
H          -1.18627884164384   -1.54266421745836    1.59593270995576
H          -1.90231773387553   -0.21788056252160    1.31878672586515
O          -0.04358697321310    2.60693484868848   -0.43634072397098
H           0.77425939068306    2.08644040559588   -0.58802045743895
H          -0.60539098252024    2.32113624019852   -1.16661353614956
H          -0.74283629317025    1.89842863966969    0.82007192630454
O           0.77732408040632   -0.52131233898533    1.83639369588977
H           0.73161131936303   -1.00308714258255    0.32842884744285
H           1.69458119207343   -0.17326466414056    1.82201415143167
H           0.19703035661887    0.26170151127243    1.88201725166145
N          -1.87819955866112   -1.62894444208634   -1.40129990884628
H          -2.75460684592079   -1.73027069265568   -1.90192771511147
H          -1.30798421818379   -0.69515850116839   -1.69519793096827
H          -2.02129151698402   -1.52849780809866   -0.35534293809930
H          -1.24849623153416   -2.40586737784965   -1.58390879777320
