    26
        -50.45531814  Gyration_radius:  2.42695442043 Dipole_moment: 5.995
 S           0.85236701798270    0.68882915111039   -1.55544331393123
O           1.01825614434837   -0.78239738392209   -0.99209249644709
O           1.46785439145227    0.68895011883380   -2.83975745200229
O          -0.62414474834368    0.87677825962022   -1.63512871659889
O           1.41756783833749    1.58846842709023   -0.55787842078554
O          -1.45804337968075    0.33782812772274    1.89317404052678
H          -1.85923146789015    0.62756126319190    2.71325045404195
O           2.89229163982363    0.92234138290615    1.54391315451740
H           3.78515964891058    0.75440798107120    1.23957229727644
H           2.41053263304899    1.29556313575000    0.77475280584965
O          -1.51557472276525   -2.06641208978644    0.55325433566080
H          -0.62307954450729   -2.28745718750460    0.84308126609864
H          -1.71020579759875   -1.22021714629498    0.99650941052384
O           0.95250356901387   -0.90332595264500    1.58934551602472
H           1.72327631801326   -0.32496286689630    1.77385639117771
H           0.16669825269573   -0.39344764964281    1.86232305263039
H           1.00701740583165   -0.79669201794399    0.01003287022838
O          -0.83284112199790    2.45565345149718    0.51407120067897
H          -1.25023068060440    1.17071520223420    1.37696481223191
H           0.09821856963293    2.28588130533199    0.25513765747495
H          -1.30519946978762    2.30411608733285   -0.31330176361608
N          -1.34817274654652   -1.47749781581362   -2.03594665213017
H          -0.52120119882769   -1.91803143377865   -2.43030496872447
H          -1.09167941078655   -0.37885380421838   -1.93226310016388
H          -2.16918748563139   -1.63889359204656   -2.60941937530933
H          -1.48295164914486   -1.80890495258042   -1.03770299693050
