    26
        -50.45531811  Gyration_radius:  2.42690888583 Dipole_moment: 6.002
 S          -0.12862885504729    1.36309575049929   -1.32112554182759
O          -0.73724954440284    2.26284934862082   -2.24211231446612
O           0.20634665516747    0.05255907474417   -1.94729477608141
O           1.01581184545684    1.86665162083308   -0.57244272600090
O          -1.24741078544010    1.00172989501652   -0.25946342643482
O           1.27490771318778   -1.75522775055251    1.05885288845104
H           1.92522877783792   -2.26828780841902    1.53966934424602
O           1.07358408669171    2.54766354162373    1.99044066530441
H           0.67543668128829    3.41487965933130    2.07671199551362
H           1.16144599741423    2.38549129851767    1.02660931767342
O          -1.43561112365523   -2.07649147118643    0.70365898371261
H          -0.46434289676675   -2.15572139505928    0.73334476042157
H          -1.63631319064674   -1.37205353909250    1.33042024739061
O           2.53765508296046   -0.28673840250522   -0.68103187972545
H           2.15498763273281    0.60554430720471   -0.53938951870344
H           1.78739642094406   -1.21965582613430    0.38522107706334
H           2.12408390523298   -0.55627593765504   -1.50989602786734
O          -0.29116190204719    0.26002141558959    2.02499338205278
H          -0.84825553362906    0.73544032871321    0.62047808026989
H           0.38655779363826   -0.41332307959255    1.82730879106645
H           0.20213886276483    1.08041794639170    2.24024104793468
N          -1.98461304244866   -1.12001503239429   -1.71747759209257
H          -0.98551005606739   -0.62785610020381   -1.92456428341911
H          -2.25383684389190   -1.78426154010358   -2.43530253368387
H          -1.85734187629229   -1.58015448045809   -0.77053607010135
H          -2.65530579508216   -0.36028182369122   -1.63731390104896
