    26
        -50.45531804  Gyration_radius:  2.42698817619 Dipole_moment: 5.999
 S           0.77061690662278    1.16891753116501   -1.28806288374642
O          -0.71633922295465    1.27077202155268   -1.30705487624508
O           1.35734476279850    1.58557679703011   -2.51704255674463
O           1.29742571704640    1.77516971409227   -0.07196627607955
O           1.04335761235224   -0.38765787286104   -1.17943841706992
O          -1.43371453416923   -0.32986549962104    1.91288745100748
H          -1.83589947678452   -0.31986325941934    2.78212730309982
O           2.86265716784715    0.62891389164538    1.73696878908825
H           2.33926575865615    1.17612151375722    1.11279147864506
H           3.75664985122368    0.61812395773211    1.39238504688529
O          -1.36400578145930   -2.23713699285423   -0.07034159932511
H          -0.45259320429635   -2.47104513287063    0.13939706198440
H          -1.60292417388131   -1.57239099270541    0.60160349856510
O          -0.98041995711512    2.13572955944698    1.21085194237918
H          -1.46069754184063    2.20048434815645    0.37675462841107
H          -1.29276485556334    0.62952906687979    1.66173550323568
H          -0.04638909948327    2.11301826112396    0.91103034265139
O           1.04594232376860   -1.25912694252325    1.25426765535162
H           0.23525077791052   -0.90615081446560    1.66670793815206
H           1.05669534484379   -0.69380586122421   -0.22515251682149
H           1.78173490429420   -0.70803439343782    1.59721146999780
N          -1.29615942752075   -0.90889336058345   -2.37471971275141
H          -1.38518883918336   -1.52509796833319   -1.51631555794863
H          -1.10836939684189    0.12702020105535   -1.95570617091160
H          -0.45259925652821   -1.15794401310916   -2.88440596544100
H          -2.11887637790008   -0.95236375280875   -2.96651357734016
