    26
        -50.46173765  Gyration_radius:  2.45754155278 Dipole_moment: 6.253
 S          -0.46252808948032   -1.33138192088522   -0.47342935835635
O          -1.47648817180750   -1.73696224713202   -1.44657927820887
O           0.88530195616366   -1.48172428240101   -1.01961833289475
O          -0.72032198060333    0.21393748055980   -0.34456765600889
O          -0.60389138228544   -1.92255765604708    0.83453514253668
O          -0.12871891472109    1.92961671616272    2.81671499842847
H          -0.77747312382217    2.62678804896118    2.71197927857012
O           2.10890108970537   -1.14288304542117    1.30373554799658
H           1.43681987412927   -1.54065112721420    1.86477337635585
H           1.86173620307722   -1.42550771135543    0.40256883647720
O           1.35881833359307    0.73276765893505   -2.28187319231862
H           1.48640120079606    1.33998880897376   -1.54319176561649
H           1.39113001836552   -0.16469301582236   -1.86922439297806
O           1.32391585702397    1.32623148114769    0.66917583269408
H           1.81368345315618    0.52444853838629    0.96621493682045
H           0.08077628253346    0.67663489898312    0.08548243747062
H           0.92320457174461    1.69149094378828    1.49109274790635
O          -1.56101833124782   -0.34623628577092    2.72326325685171
H          -1.62417225050018   -0.93095028053446    3.48050948290398
H          -0.63986340450452    1.09061395821640    2.83217759993942
H          -1.26865847768801   -0.91063242323593    1.97403502303901
N          -1.09129829733952    0.17254741470450   -3.06767744692870
H          -1.76850950093267    0.89633605454963   -2.84522398825447
H          -1.30254648629124   -0.70604142849603   -2.41392197985731
H          -1.14029561005128   -0.08511843391587   -4.04878531685119
H          -0.10490484902637    0.50393784487186   -2.80216579972386
