    26
        -50.46173763  Gyration_radius:  2.45737337077 Dipole_moment: 6.254
 S           0.05387177608329    0.33405873362428    1.44781307974841
O          -1.29710067820063   -0.06869069508589    1.75265256365402
O           1.03507567023997    0.04351871357191    2.49304611467484
O           0.57002041509842   -0.54348850223090    0.25004484081507
O           0.14391525090106    1.72599733507214    1.00959364524710
O          -1.78131144530814   -1.99269387206438   -2.12687024383481
H          -1.26657981876747   -2.76398350696177   -2.36802722727460
O           1.96342562390164    1.74154558956937   -0.83748191162253
H           1.49179823248926    1.31242655424378   -1.56143711971062
H           1.25753101901608    1.96019516060104   -0.18126203333705
O          -2.12282818208178    1.67979061559224   -0.35740820866842
H          -1.35676141136335    1.94516545725269    0.18653847968281
H          -2.60018072445020    1.05877562488899    0.20034495363897
O          -2.16422011173568   -2.23882947219764    0.52519729008338
H          -3.03939965988121   -2.36204962903352    0.89688203362440
H          -1.97147511905280   -2.08889220985658   -1.16768053232590
H          -1.77589916520650   -1.47412403320864    1.00463770971250
O          -0.45082088033873    0.30336196128047   -1.91451212929914
H          -0.95059295260832   -0.50006917649846   -2.18695168199546
H          -1.13501332408190    0.90847701780355   -1.54469083515604
H           0.15042932850039   -0.23535940526602   -0.62727377670277
N           3.08637799714341    0.24921125862371    1.01911642751348
H           2.71858438791217    0.82825123682295    0.19286412287943
H           2.23378195580320    0.16318894332614    1.73291220343353
H           3.32428654365999   -0.68674855470982    0.70393592485632
H           3.88308526230467    0.70096486483981    1.45801629037884
