    26
        -50.46173766  Gyration_radius:  2.45770287355 Dipole_moment: 6.251
 S           1.44753735624793   -0.28925128537011    0.17429640375008
O           1.92318482613251    0.95725461298630   -0.37366433038890
O           1.17674546690066   -0.20977159187676    1.60883662589708
O           0.08039113002300   -0.64032021189990   -0.51752243357156
O           2.26829989932974   -1.45700917274300   -0.14562464097105
O          -2.02646360735069    2.00023940037083   -1.88917758389381
H          -2.44524582359794    1.48980759775098   -2.58341784636157
O          -0.93426211490791   -1.66727654362147    1.98488432447648
H          -1.61606337337798   -1.10386896994648    1.59970614784791
H          -0.14655779624186   -1.07626268060332    2.06809117611261
O           0.21734647121248    2.25636048988078    1.52128491604558
H           0.76635264514727    2.58480184790884    0.80341919681182
H           0.65246039842220    1.42471835003166    1.78977012424454
O           0.60074725748696    1.88902799953274   -2.45942460016463
H           1.09869116071166    1.47081554343116   -1.72283937793112
H          -1.06846017880001    2.01008510109977   -2.10715745224979
H           1.09614695303244    2.67537903320979   -2.69502468495034
O          -1.75831679229905    0.80241481297772    0.47308690435336
H          -0.66839666743919   -0.05213671017085   -0.15109798233345
H          -1.20628768634212    1.44754466882228    0.97309337167767
H          -2.03987394405762    1.28986942033079   -0.33478783988553
N           0.50764656748016   -3.19668015952904    0.39835568378095
H          -0.16681050249545   -2.65115045574135    1.03134770728181
H           0.04334219071672   -3.43666248500883   -0.47271003470673
H           1.33819679444003   -2.49126357237699    0.16031136622984
H           0.85964935964655   -4.02666503945910    0.86596486892054
