    26
        -50.45997517  Gyration_radius:  2.57050050548 Dipole_moment: 7.037
 S           0.45873378446653   -0.44035323810764   -0.82401286465352
O          -0.12914233522810   -0.95205293085645   -2.06886453283730
O           1.16848857045666   -1.49731330444440   -0.10532570056779
O           1.26602425591479    0.74116915086221   -1.01735813745268
O          -0.78905695727121   -0.07244778701617    0.03733167248262
O          -0.21551184373537    3.55831219474114    1.26160645426065
H          -1.10388590592046    3.87896317644547    1.42382881146026
O           2.52196482718614    0.27011253910654    1.39493263368755
H           2.19267338516066   -0.55048351604603    0.98771965315541
H           2.61652579913820    0.87018046352375    0.64667696911661
O          -0.21456332482949   -3.64619655577563    0.31649471882725
H           0.31239476875530   -4.36581259768570   -0.03570456621234
H           0.36792888087095   -2.84101464855063    0.26356982182031
O          -0.07354815611085    2.97505917944772   -1.35285527065637
H          -0.15858125057683    3.39315570269242    0.29298303991038
H           0.51172490698435    3.52117091674031   -1.88107915674858
H           0.37871549408392    2.10479289230885   -1.27397771760888
O           0.06764845384574    1.03370556700565    2.11014819335200
H           0.01219394614075    1.99664837690808    1.90748305574212
H          -0.46943507481203    0.38203424037045    0.92317269390750
H           1.02342557770060    0.79946442487826    2.05971303779263
N          -1.99782195477630   -2.25694015103968   -1.02012302661280
H          -1.43852803765465   -2.97711316240089   -0.48090747464773
H          -1.22138442893517   -1.70449374033930   -1.61240331353980
H          -2.73543704563802   -2.66141806876819   -1.58684487054086
H          -2.35154631521244   -1.55912910398873   -0.36620410344111
