    26
        -50.45114715  Gyration_radius:  2.59840230699 Dipole_moment: 3.637
 S          -0.71310149543698   -0.63886390038856   -1.44883889071124
O          -0.41111300205192   -1.92912393785532   -0.89852590838324
O           0.42563825419181    0.13717948678501   -1.86683573441714
O          -1.68060301543439   -0.79969978171252   -2.62941460308679
O          -1.52008860455373    0.19219889071536   -0.44232955213195
O           0.49791649925925    1.42748456330438    2.45648881628842
H           0.15870152275433    2.31477381531302    2.57618549197489
O           2.63845220074656   -0.79564220085527    1.80484933866152
H           2.34710127101860   -0.27881681776222    2.56103893236015
H           1.97361088590905   -1.49251625810070    1.68772643142465
O           0.48590698630300   -2.53864881621000    1.48418065148495
H           0.23202099921828   -2.38336014003069    0.54670911924870
H           0.43517653913932   -3.48581435049217    1.62325143078006
O           1.81198457727445    1.24363814292186    0.18323151686920
H           1.35825026209284    0.88980321273155   -0.60075741009725
H           0.98348370124849    1.43104928906645    1.58844672853198
H           2.36094829647824    0.51423372979780    0.52627421022580
O          -1.24710634409551   -0.47949525263233    1.94139098802572
H          -1.45223657511735   -0.12355547440440    0.56689650082704
H          -0.70160323732859   -1.28823116628686    1.93641459505317
H          -0.64382487140937    0.24415917824146    2.25007939075893
N          -1.49854706629213    1.68514757724312   -3.22564074304162
H          -1.75305861196166    0.15238189027799   -2.99821336101126
H          -2.04481795115999    2.26425127750944   -2.60210313170768
H          -0.54660613922373    1.63573103022721   -2.87323306360521
H          -1.49648507148962    2.10173602252977   -4.14727175432088
