    26
        -50.45114703  Gyration_radius:  2.59865989077 Dipole_moment: 3.627
 S           1.20344134581028    0.92433877372664   -0.84751378917730
O           0.36872013580197    1.87429650886938   -0.15864582470135
O           1.93365679542886    1.62908793671758   -1.99891460113397
O           2.15705661523397    0.23361736095887   -0.02768904431321
O           0.29591183771575   -0.08124906540192   -1.56900661137817
O          -2.20137995249398   -1.73676986331120    0.67751608100849
H          -2.98425275498771   -1.75932814821948    0.12679297179675
O           1.77068123927425   -1.75938741198496    1.62537571635421
H           2.61226027795094   -2.11830249626875    1.91163656251347
H           1.97891090553612   -0.96022583404491    1.09116729909854
O          -0.40710686739948   -0.90695563630315    3.14233040796189
H           0.41731097000876   -1.18993207066172    2.71594884566446
H          -1.05892833681800   -1.57950366022929    2.92650219930498
O          -1.60160524666519    0.74385133327438    1.32119310958721
H          -1.15560117302770    0.45525087476897    2.13909658291840
H          -0.92869055662405    1.21842451133078    0.80388877133377
H          -2.03694597549321   -0.77832715680651    0.88652037007925
O           0.10323593382903   -2.30766020816276   -0.46665155587758
H          -0.79419170820634   -2.21392332331895   -0.05578041446766
H           0.25342707378471   -1.04729626450111   -1.13633815568417
H           0.73255936138652   -2.29876538273498    0.27850197246706
N          -0.21570251212187    2.79916823460128   -2.75635945165882
H          -0.48840562659317    2.79618738946844   -1.77733067358903
H          -0.31264591134850    3.73350941336706   -3.13126257766486
H           1.18508075901463    2.15622431565308   -2.45676155815347
H          -0.82679663898129    2.17366984920747   -3.26421664227424
