    26
        -50.45114710  Gyration_radius:  2.59859883994 Dipole_moment: 3.633
 S          -1.15627925630784    0.72646450263024   -1.07356299223952
O          -1.80034915403616    1.22832563828413   -2.37316183248191
O          -2.15007062720998    0.07941166303497   -0.26579827707383
O          -0.12258434359644   -0.29610168382733   -1.56446828847041
O          -0.45373698739505    1.81139217593085   -0.43867637859461
O           2.21171372869728   -1.48135021528684    1.11115603285142
H           3.04820488286338   -1.51802540838118    0.64680883679094
O          -1.83057061579696   -1.66311195646617    1.66151086041826
H          -2.67631717132822   -2.04181013269140    1.90710793724159
H          -2.02527137184890   -0.95214202716081    1.01034158617384
O           0.12368630462410   -0.47873311739717    3.25827280074764
H          -0.63410984069823   -0.86945270765579    2.79506007558665
H           0.83191216288370   -1.12549066164484    3.19584124086705
O           1.40858395984845    1.01252085874339    1.36221836962453
H           1.97233829965367   -0.51806406915659    1.17546439801113
H           0.76878475489666    1.37149602464594    0.72389738515424
H           0.89530952601891    0.79794928421511    2.16323967071374
O           0.07681112721320   -2.34958446947861   -0.16737492941698
H          -0.62731832155345   -2.29163560574989    0.50521852799463
H          -0.07218767323686   -1.19577600787498   -1.00710998097705
H           0.91901709118778   -2.14330949626571    0.31336614406975
N           0.34636951482567    2.44205147274906   -3.06673693233459
H           0.51451707760291    2.58049327900565   -2.07405281555993
H           0.42845943290984    3.32675403915175   -3.54997866491247
H           1.04225110129921    1.80264520795358   -3.42664059950197
H          -1.03916361151253    1.74508341269743   -2.82194218467624
