    26
        -50.45114711  Gyration_radius:  2.5985158315 Dipole_moment: 3.631
 S          -1.00902000979932   -0.89211215672825   -1.09652773287589
O          -2.27286503148045   -1.48136217290152   -1.73773800522734
O           0.01772379989347   -1.89357132430385   -1.05462898918552
O          -0.65492168186619    0.32875313754777   -1.77313963678113
O          -1.46628655810258   -0.54055286129284    0.32553631720726
O           1.02244693290651    1.48379547268695    2.25231129276662
H           0.46048348289785    2.10807586223134    2.71183341160454
O           3.24637169490051    0.52286468700428    0.22421393833813
H           2.95749462706650   -0.40307285336729    0.25018623138166
H           3.19295274982198    0.84035654122302    1.12981583026774
O           2.13590789202233   -2.02158364185807    0.47819983490422
H           2.54999605883654   -2.88237205269487    0.39700094913322
H           1.41261372658294   -1.99945180022233   -0.18798336963209
O           0.98156016801737    1.94537237276887   -0.33857071527506
H           0.96525536816093    1.71759884821363    1.28720791977075
H           1.86836954377534    1.55584995342966   -0.45248704897495
H           0.38674695989330    1.42397472003379   -0.90426288716784
O           0.19822220999906   -1.01581281522167    2.11751611933235
H           0.52200068675787   -0.09517827746566    2.29256331117181
H          -0.78548863979286   -0.79178277997804    1.09774469035221
H           0.94199189185927   -1.47500484214792    1.68447015009034
N          -3.43325904539134    0.80258450635510   -1.74853532872418
H          -2.89636013756887   -0.67209359966985   -1.80174102608586
H          -3.77778611234708    1.05561240784492   -0.83207486080820
H          -2.50694467411857    1.20279560779252   -1.86952957689296
H          -4.05720589287277    1.17631706073865   -2.45138081865414
