    26
        -50.45075355  Gyration_radius:  2.56257372335 Dipole_moment: 4.135
 S          -1.15514835978531   -1.25163772181788    0.28156230206440
O          -2.63529163623103   -1.51395557088082    0.68668303200945
O          -0.36851614587813   -1.40954567674240    1.50664709566327
O          -0.76554449636477   -2.20208519472556   -0.74329049237780
O          -1.07178441378410    0.12624884928044   -0.21419566299895
O           2.83633087235714    0.07186866586603    0.51162520117641
H           3.51571545424799   -0.59259730269504    0.63565190542780
O          -0.23834615514600    2.16786724341293    1.15216926637351
H          -0.70968770114299    1.48587001462380    0.60649397409056
H           0.45276555928357    2.54082182117124    0.56978489169352
O           2.05090744900620    2.67837801264308   -0.21428959598400
H           2.68464593953460    3.37511860750240   -0.03898461199850
H           2.50302535161729    1.83543438253676   -0.06163466779001
O           1.24255651131159   -0.64070435595845   -1.39836965211403
H           0.67891637085958   -1.42664590881984   -1.23634568380981
H           0.59749142528234    0.07936694946656   -1.37496468691479
H           2.25364258662818   -0.26211315351460   -0.23766281195025
O           1.03295381259208    0.42006165661796    2.36526986863648
H           1.82031908259251    0.30120600790717    1.75250828872616
H           0.48220360882730    1.26332149135093    1.96306889023040
H           0.39792739418860   -0.39599737969913    2.10014530392569
N          -3.22370134327667   -1.32002626130532   -1.86311671943370
H          -3.11592778551699   -1.46310910999081   -0.17976759807031
H          -2.33946095098569   -1.81610142180797   -1.93899695335856
H          -3.87544935224877   -1.70121095414859   -2.53701734568675
H          -3.05054306797702   -0.34983370025521   -2.09297353754524
