    26
        -50.45075317  Gyration_radius:  2.56174926613 Dipole_moment: 4.151
 S          -1.35938611570736    0.61209041700664   -0.87321030154203
O          -0.74189815975752    1.72870810360226   -1.56405125571966
O          -0.46363830581746   -0.54844381254061   -0.83584598870421
O          -1.79619090268028    0.97318951847529    0.47720603113870
O          -2.64640045372386    0.18550342520587   -1.63830985864008
O           1.40092487209302    1.09432963828270    2.26832037425239
H           1.48466736258520    1.97041225816472    2.64763723160067
O           2.37546133173661   -1.51756610774210    1.85910917523760
H           2.23895259294377   -0.58152665920581    2.06731665040829
H           2.89935517118375   -1.89158306404380    2.56860548714777
O          -0.17245635702818   -2.16163793555173    1.17551590091253
H           0.79496889648037   -2.14917206121869    1.31511381733347
H          -0.32511758086831   -1.69647633720989    0.31233657400724
O           1.51329293605458    1.23536673852595   -0.31275645274661
H           1.36930671467727    0.31002404638892   -0.55311877788697
H           0.76713164370376    1.68426173061378   -0.76429924811878
H           1.45103469660533    1.21675145470371    1.27066896949138
O          -0.87860832693727   -0.16038922276824    2.45704258972200
H          -0.62870831196773   -1.11540453627615    2.01060055829106
H          -0.00852089161336    0.33848097078854    2.52079331746074
H          -1.37683783960378    0.32999604622955    1.64952084207739
N          -1.13969162007422   -0.01101933271468   -3.77729567946519
H          -2.31328469920405    0.01320753372108   -2.55672204408376
H          -0.52450880814758   -0.78956997863944   -3.57857980687966
H          -1.19527465959105    0.11001288231472   -4.78054096670881
H          -0.72457319536466    0.82045428387479   -3.36505713858684
