    26
        -50.45075279  Gyration_radius:  2.56123201275 Dipole_moment: 4.165
 S          -1.60801180724699    0.58483488910261   -0.25428757370468
O          -1.43716269314940   -0.11674260900643   -1.52839815540642
O          -3.09465467153720    0.36975795797106    0.15497633699417
O          -0.77179913371552   -0.02010991357417    0.78741772325512
O          -1.34772530849596    2.00717467219846   -0.37503661806865
O           2.21888980231190   -0.18998542092459   -1.82578540434354
H           2.45033648762199    0.23901928578213   -2.65092617534547
O           2.94945862371372   -1.55375427593309    0.52869379047887
H           2.90660245874853   -1.04017022271098   -0.29146703120161
H           3.72314141099986   -2.11573967733257    0.47046416431715
O           0.35705451681969   -2.35231022059911    0.64800344490052
H           1.29244180281256   -2.14328020551572    0.84058944864535
H          -0.15075294448459   -1.52533475492389    0.85513436011365
O           0.24330101836363   -1.89343342449361   -1.78563828626886
H          -0.55448017989407   -1.18483640120868   -1.73756840229508
H           1.05424702945920   -1.31199448396947   -1.90493899838460
H           0.28845408489095   -2.24009935297486   -0.76022166487082
O           1.22832589255431    1.54185558440149   -0.17854683528952
H           1.00782335424108    0.97490598644637    0.57270524032944
H           1.84126638899953    0.53076091991878   -1.23351694271753
H           0.35573802196796    1.92465980449273   -0.41230506446337
N          -2.62392379670239    1.98858283038977    2.16564623314371
H          -3.17852468358044    0.90911385697100    0.98315302212544
H          -1.97275529937800    1.47400984978547    2.74489518734798
H          -2.08418386166378    2.46509084812374    1.44784452950463
H          -3.09310652365261    2.67802446758018    2.73911368120473
