    26
        -50.45075341  Gyration_radius:  2.56241728416 Dipole_moment: 4.141
 S           1.33773074076186   -0.78478581835510    0.75889989476738
O           0.70580563836749   -0.63657080802426   -0.55634931064145
O           0.63753880091960   -1.76359940655148    1.56952988573811
O           2.79927089307266   -1.26656025906101    0.52400695563139
O           1.44497686068961    0.51200089654073    1.43074313663759
O          -1.97824703600412    1.78989007631733    1.09295847490911
H          -2.30901152756943    1.96918127565191    1.97437959284258
O           0.40112644805231    1.60047456268645   -1.83390396286079
H          -0.55726698258916    1.60170818344526   -2.02695647620031
H           0.60551741749183    0.68986067343099   -1.49603760059906
O          -2.30411847700637    1.78833332631395   -1.70600249596428
H          -2.85430231403783    2.48336241488421   -2.06933488992606
H          -2.40353391455296    1.81876138476926   -0.74299202368048
O           0.44069997900306    2.53668588695615    0.46056761191594
H           0.96333992731989    1.72322584759061    0.91257298151857
H           0.47597470241672    2.26130457611248   -0.58775865936876
H          -0.51031384005041    2.37947686514045    0.74423615640772
O          -1.65377436356740   -0.75728894322960    0.77338033610412
H          -0.95053769550446   -1.18464400872702    1.30693563666327
H          -1.87375545751755    0.79089328502189    1.03271399898829
H          -1.27661990978688   -0.78296790413773   -0.11664810210015
N           1.77094585904189   -3.51143470905695   -0.36356184047263
H           2.67614816324192   -2.16916131288346    0.13080669374349
H           1.98308170707126   -4.50059941083683   -0.38893821493150
H           1.12612833691573   -3.32941658135691    0.40113741597233
H           1.30319600382778   -3.25813010264252   -1.22438518509357
