    26
        -50.45075327  Gyration_radius:  2.56225486659 Dipole_moment: 4.145
 S          -1.00995687162156   -1.40051342282799   -0.00146099122962
O          -1.71241077099046   -1.21142917874799   -1.25705882602798
O          -1.05597673384915   -2.90694875061036    0.38865661902016
O           0.40101252057708   -1.01916241440337   -0.12151743191620
O          -1.64938931491675   -0.67972064911491    1.10136637218456
O          -0.66626483013952    2.77924875384122    0.38041637570622
H          -1.46831153566154    3.29680822178663    0.29494217440693
O           1.78369004163652    0.22110701664878    1.68910870843162
H           2.14332375574040    0.98224498246028    1.19198938491384
H           1.38574752077832   -0.38060327721597    1.00740297077106
O           2.14403560841481    2.57996468423013    0.39432069285769
H           1.21534941846679    2.83953279188580    0.30250925308983
H           2.62208578780766    3.34699079490051    0.71193595618613
O          -0.45043215777605    1.07264761610735    2.34238619058395
H          -0.56539083505807    1.82288494033471    1.68394881430637
H          -1.01433904947632    0.27987347717337    1.90286451625637
H           0.56544868836913    0.72104037783164    2.20089195753420
O          -0.49178914371821    1.09194401911804   -1.57360513529678
H          -1.15249659469653    0.36726905520886   -1.59412571943128
H          -0.65833888224956    2.14670952618565   -0.40212729893767
H           0.31892888743303    0.62127877921018   -1.33705772144568
N          -0.06842952480259   -3.41083632434475   -1.98930322041567
H          -0.70030536272072   -2.65316444878477   -2.23513612445892
H           0.86881165931259   -3.03023260529555   -1.96175345203644
H          -0.67599916751876   -3.35583480095278   -0.41046475389788
H          -0.10860311332818   -4.12109916462431   -2.70912930115667
