    26
        -50.45871487  Gyration_radius:  2.56164767671 Dipole_moment: 5.903
 S           0.66932386686826    0.21582048752907   -0.87276850365364
O          -0.63635970590879   -0.34769345983644   -0.21665268942098
O           1.71291249048390   -0.78611322157598   -0.60908415976501
O           0.36144027615494    0.27845105323046   -2.29889827337079
O           0.95753813218568    1.49694047602571   -0.27206831039507
O          -1.48588246205130    2.03757609641304    2.74930912717989
H          -2.43488060856517    1.94002363753474    2.84032300495065
O           2.26369292505933    0.23992955221858    1.80572431022315
H           2.27130049366027   -0.29199337158819    0.98962554619225
H           2.13757300930544    1.14009027487718    1.48494543451150
O          -1.55450361466947   -2.65232067976129   -1.28349429557414
H          -1.31403201560219   -1.84776992900422   -0.77855492601244
H          -2.44040430811132   -2.50131944350051   -1.61744216660153
O          -1.05355189237059    3.08927562682614    0.32499444105713
H          -1.33949957579896    2.47370797130985    1.87875491427435
H          -0.67323003224323    3.96854658703703    0.28114970316440
H          -0.34216860567770    2.47898545294597    0.02847316239535
O          -0.30256322921013   -0.30053081615294    2.24798574000326
H          -0.52644951029151   -0.34764855214039    0.83839641761587
H           0.67303095367394   -0.15852565735442    2.29754231986191
H          -0.71755143708434    0.54530073840733    2.54399447810084
N           0.76330613203711   -2.19115213165053   -2.51376198056629
H           1.36854941155028   -1.98038513903879   -1.67398580930681
H          -0.11643086515895   -2.64736286241097   -2.18710152375024
H           0.52055114119047   -1.15661227168953   -2.73361101094956
H           1.23828902057107   -2.69522041863596   -3.25379494014554
