    26
        -50.45871484  Gyration_radius:  2.5617336015 Dipole_moment: 5.901
 S           0.24887610631245   -0.95411795225079    0.53232356502793
O           0.56024919857469   -1.78949331554990   -0.63720224800379
O          -0.74335651226398    0.14337694819643    0.01865248209902
O          -0.52213771752193   -1.70907699191538    1.51624840186721
O           1.41200686796997   -0.29098317966705    1.07318154570268
O           1.17075645234163    3.53424319474174    0.23904004380330
H           0.46499248664616    4.17519537186153    0.33630965386905
O          -3.12009118722241   -0.78277305326443   -0.86806346678431
H          -3.81653145518453   -0.38792520240706   -0.34059147481164
H          -2.29445568393282   -0.31731294917154   -0.61957920036294
O           2.51359509015533   -0.14297765397157   -1.45037920306847
H           2.78941314101887    0.02697173076061   -0.54255689568514
H           1.89172671668576   -0.88761239059287   -1.36227808742853
O           0.53146461880433    1.62914045969340   -1.51602762719352
H           0.81895395307632    2.38824799150982   -0.95353814810516
H           1.33870170040557    1.08252975528187   -1.67086882370700
H          -0.23277443842286    0.79384597431035   -0.64579029925258
O           1.07689648084591    1.95819416386590    2.40187690199480
H           1.16302583737369    2.99402631209928    1.06219049706515
H           1.13450050887953    1.08815397485023    1.94783585430517
H           1.82179724742681    1.98347454966224    3.00534070470853
N          -1.68376333243983   -2.96021848143134   -0.32553610475947
H          -0.78481319151500   -2.70410814571325   -0.81779682982055
H          -2.44172529387536   -2.32592955345731   -0.66006132855951
H          -1.91947668411054   -3.94482165916694   -0.37395250388945
H          -1.37783089000788   -2.60004990827629    0.65122258095859
