    26
        -50.45469734  Gyration_radius:  2.51029242489 Dipole_moment: 5.583
 S          -1.86101968401792    0.12058591554786   -1.19120536996147
O          -1.97169330661725   -0.25441369186328    0.30404539498014
O          -2.40722191972115    1.54916407209743   -1.26600818408454
O          -0.45308991379192    0.14552246427045   -1.54969276352377
O          -2.66964082661678   -0.77666995249861   -1.93771648164643
O           0.85450874350939   -2.33354213242649    1.12749714135503
H           0.74926412459282   -3.15894725182372    1.60275824915032
O           1.57650453928655    1.27663583305664   -0.25570533282520
H           2.30344312503649    0.62895835060026   -0.20952897445826
H           0.95367460773207    0.90683141922041   -0.91121548295722
O           3.09772487284712   -0.93628861617506    0.24648425006214
H           3.77959060155297   -1.03959754516280    0.91136186517994
H           2.36128900226741   -1.51664053974767    0.50480580884653
O           0.09408421184301    0.24326294069648    1.67430405583373
H           0.70709389367353    0.70018983430446    1.04138676853973
H          -1.15242152430202   -0.00269548531630    0.87476641684664
H           0.40802129873266   -0.67815112426158    1.70734343033257
O          -0.49515841160832   -2.49359681328349   -1.16060420273749
H          -1.44631803916832   -2.54886504672273   -1.29534055615877
H          -0.25868596859616   -1.61920532831174   -1.51251832421242
H           0.33580974137617   -2.43200176430486    0.29215417493758
N          -0.84949775167966    2.89843679225084    0.25550504227422
H           0.10898207810581    2.69358359985781   -0.01126395391901
H          -1.78857767038942    2.15697593728056   -0.67541670348566
H          -0.98679306756458    2.57069538491565    1.20403431883665
H          -0.98987277651157    3.89977273780557    0.22976942278859
