    26
        -50.45469733  Gyration_radius:  2.51055103277 Dipole_moment: 5.584
 S           0.48894353255440    0.08674299169349    2.15706732908081
O           0.46138876921471   -0.99774746464413    1.19040461724699
O           1.94759924098494    0.48208176477699    2.40260879618882
O          -0.14110207963741    1.33544972348252    1.49931232266742
O          -0.18716434222674   -0.16286757705702    3.38048696777448
O          -2.56279235075119    0.19572031208019   -0.91796780251090
H          -3.45171328962005    0.55189495488189   -0.95240498093622
O           1.16643358594902   -0.96549711627421   -1.37350971853962
H           0.46321452742605   -1.40489335441780   -1.88589099874395
H           0.97466604388308   -1.18974330888562   -0.44220409012953
O          -1.21790938364460   -1.64013397976376   -2.52307785956038
H          -1.77271836859587   -1.07567574933721   -1.95777801678270
H          -1.49083451381988   -1.48176890323217   -3.42758502753055
O          -2.19153682154134   -0.93108349269071    1.46431513129505
H          -1.29027585576414   -1.26126798271488    1.31233801358357
H          -2.14242961558691   -0.51114378261053    2.32871749583592
H          -2.46427660403026   -0.20497818648434   -0.02008122922886
O          -0.07455077827041    1.34361451282970   -1.02855297032875
H          -1.00932690827579    1.09762793160366   -1.14763512964379
H          -0.06691881365002    1.36656858461611    0.47293885446956
H           0.43741918024461    0.52700028129434   -1.26565843450110
N           2.86393839983481    0.98943944050039    0.06523004678058
H           2.63232310210627    0.20907071430065   -0.54239918372780
H           2.38136082328679    1.80973685294800   -0.28162118546930
H           2.38492249081067    0.67941336567528    1.46914414530417
H           3.86134002909666    1.15243945747108    0.02380290742071
