    26
        -50.45469733  Gyration_radius:  2.51033406422 Dipole_moment: 5.579
 S          -1.51058821795694   -1.16283298202360   -1.12310899145895
O          -2.81752807447192   -0.94027636293423   -1.63145980485756
O          -1.04900395885394   -2.59727984927051   -1.39546881294638
O          -0.52193106795074   -0.28381210969719   -1.92214733162192
O          -1.32867130556681   -0.88037356859511    0.29058157548227
O           0.04599809489924    2.72865636952998   -0.02521421941564
H          -0.00935655142415    3.59692856178094   -0.42677952329232
O           0.93418313198528   -0.70439900912066    1.67677858237686
H           0.89152448114343    0.10178322523485    2.22283253974950
H           0.01983241905302   -0.84102968714717    1.36105072172730
O           0.75050911005174    1.88323676153533    2.53363487762431
H           1.45575285334276    2.45395122998526    2.84117329581759
H           0.43521913957298    2.25276067001785    1.69103503265380
O          -2.32228487314762    1.53543414491899   -0.25204726920419
H          -2.10085189035873    0.71752339406352    0.22373077702715
H          -0.84650524248749    2.31945097405110   -0.13655746351199
H          -2.76888685642943    1.22807878016815   -1.04705016408870
O           1.50355690384977    0.48208944475075   -0.61658068973681
H           1.18132292829647    1.38900383735254   -0.46780664765746
H           1.41609623813187    0.03147769265005    0.26342289972161
H           0.32991993648381   -0.01610939056362   -1.40960213474293
N           1.35036463650332   -2.66788790399809   -0.50113521463607
H           1.77415542483029   -3.58619949009516   -0.48828274259274
H           1.34751080365877   -2.29350793961525    0.44314067341339
H           1.91157932898036   -2.05398786125250   -1.07917614236353
H          -0.07191738212262   -2.69267894171600   -1.02496384347357
