    26
        -50.45469738  Gyration_radius:  2.51020248259 Dipole_moment: 5.581
 S           0.77787937830623   -2.01000762336230    0.50026043394855
O           1.98208376648838   -2.39469005161723   -0.36359074590878
O           0.43197883195321   -3.05849121379282    1.39311965256185
O           1.27254074210301   -0.80574654218603    1.33312382695043
O          -0.28837139977574   -1.55008646524571   -0.37330252942027
O          -1.50723725692219    1.45181544120655    1.75166089830959
H          -1.74355522238576    1.81010624542740    2.60836858338488
O          -0.36012152367389    0.61413443818925   -1.91687163082310
H          -1.21613630834029    1.05785704191081   -1.77460898363727
H          -0.46432935299963   -0.26697408555747   -1.50787921665545
O          -2.50250200448630    1.89949154793249   -0.81116365653723
H          -2.26346375836666    1.72838123780302    0.11593120021636
H          -2.72695275026447    2.82875874121839   -0.87352274511856
O           0.81690108588657    1.45497968409028    0.29650882093235
H           1.13679215005399    0.11286290316128    0.88820122037474
H           0.41995782333929    1.24597092157512   -0.58884649200365
H           0.05799103341938    1.66888476982022    0.86822175590802
O          -1.71431628599562   -1.19935142258165    1.85392901162862
H          -1.18160819511244   -1.82635517985071    2.35296298287991
H          -1.59006294218614    0.47056959878217    1.83428294322812
H          -1.48585316386159   -1.38282278008654    0.92735045825307
N           2.45328505987639   -0.29672561151847   -1.75525452440347
H           1.58170771789090    0.00134806612385   -2.18344725441795
H           2.75459308569290    0.43196958622459   -1.11948219309883
H           2.20761059730856   -1.57394381606243   -0.97769559927616
H           3.15118890189722   -0.41193544163029   -2.47825621711493
