    26
        -50.45469737  Gyration_radius:  2.51016472475 Dipole_moment: 5.581
 S           1.20395536569650   -0.71431212185971   -1.71331565008966
O           0.34129733049161   -0.99817644307667   -2.94609243527184
O           0.87740807932730    0.61180883559114   -1.21721921918381
O           0.73167560414443   -1.75045088658781   -0.66815654660913
O           2.57795848856712   -0.94824918263196   -1.98459770369265
O           0.88496645292204   -0.18709966102102    2.57452788101855
H           1.30098067112615   -0.61980821985840    3.32146521641674
O          -0.51232014131532    2.20949497612416    2.32031237969534
H          -1.02749898477227    2.32785410179173    3.11924487850275
H           0.05605827808887    1.43337986593002    2.46326993806871
O          -1.40190988284678    1.48113968818233   -0.15804390518052
H          -1.18782911564281    1.97767039140500    0.65285674144546
H          -0.54676594266098    1.37235336901441   -0.61768654902393
O           2.70989320446135    0.15709214361267    0.66792702514730
H           1.59112425186049   -0.08477107393839    1.89094012393844
H           3.16066456514570   -0.50817204305213    0.13856028868539
H           2.14343184072758    0.62087293357570    0.02889458789637
O          -1.11552165457793   -0.94318960190724    0.85847977874871
H          -0.53769945224981   -0.78064093864118    1.62548586343425
H          -1.34485356163356   -0.04084071979182    0.51472823395519
H          -0.05679951062267   -1.44349140045055   -0.08164947045061
N          -2.05913147655627   -0.62419502879835   -2.13477790369075
H          -2.09902905721440    0.27770854785962   -1.66915275710089
H          -0.66030800021792   -0.83597375774074   -2.67739652868296
H          -2.26611427180100   -1.33987151333499   -1.44852008536941
H          -2.76363306042668   -0.65013226040870   -2.86008415258584
