    26
        -50.45469716  Gyration_radius:  2.51016809378 Dipole_moment: 5.576
 S          -1.30085406860115   -1.27174694403899   -1.25839293015126
O           0.14025593330648   -1.10505426103864   -1.17558022857903
O          -1.80493805171401   -0.53296498273614   -2.50117292828049
O          -1.76657791608454   -2.61295468673156   -1.23552193031595
O          -1.94333524138907   -0.51339270172323   -0.07486185367449
O           0.42573786182694   -0.52438148559758    2.64490567114850
H           0.17248865011050   -0.77282521159543    3.53502569517401
O           2.81005079648665    0.42653995091659    1.56312130105843
H           3.21261569170968    1.00242306039985    2.21436840388932
H           2.03988538754401    0.01295666883114    1.98945415287094
O           1.53823458572541    1.11768208998304   -0.75420967770254
H           2.21030181002173    0.92683814598573   -0.07471274178232
H           1.20326377787072    0.24150049574525   -1.02727319509657
O          -0.52579125795072    1.34854883540820    0.88266221331746
H           0.26734243242019    1.38730694118640    0.28740674696445
H          -1.39143372998296    0.27928232064557    0.28196881663560
H          -0.22932030850668    0.84909910550584    1.66450755329776
O           0.00256735479381   -2.59778271809968    1.03131822636182
H           0.24718643643424   -1.31526592485784    2.08001527337721
H          -0.83294150956572   -2.99656226902067    0.76887065028519
H           0.33730659424755   -2.19493556495811    0.21277460590178
N          -0.93546331712840    1.85806135198355   -2.20562015266757
H          -1.07394187482305    2.46436340799599   -3.00327869117101
H          -1.45594564086173    0.45537779648208   -2.44643711223121
H           0.05756615991263    1.80956595221374   -1.99743349185621
H          -1.40426057583323    2.25832062711504   -1.40190436680784
