    26
        -50.45235266  Gyration_radius:  2.5959401738 Dipole_moment: 4.466
 S          -0.31364440022844    0.44972053845478   -1.46016788495368
O          -0.44357940338581    1.34136507653610   -0.32373582847405
O          -0.90547934793205   -0.87359580668875   -1.15857889645268
O          -1.14630174356222    1.05037758192963   -2.62557190984953
O           1.06421177720163    0.29462447100753   -1.89689449116744
O           1.35109716825828   -0.90937241057915    1.98830981031904
H           1.99293743497978   -1.62097919096470    1.98376147951813
O           0.18089935225967    1.03721623795924    3.61959092951497
H           0.09380166787528    0.76494215242787    4.53404113754080
H           0.71843547861292    0.36567678674711    3.17083796349825
O          -1.87139573910765    0.98923201390896    1.84449203186109
H          -1.23410797178101    1.22057161492989    2.55000877386469
H          -1.47550267332063    1.33223482268564    1.01060763963347
O           2.20118845113004    0.90951757155295    0.37694560941729
H           1.93109396775712    0.64564055013437   -0.53354452287999
H           1.63689662921566    1.66675915736477    0.56604055607372
H           1.70780148234775   -0.21007637966612    1.35029840681583
O          -1.12554314916910   -1.30988422939015    1.24394458298273
H          -1.07349470352010   -1.17715556285345    0.16363380275736
H          -0.17247948312528   -1.25648047372056    1.55134985222197
H          -1.56672632174629   -0.38757010956349    1.56671942419136
N          -0.29688775489328   -0.96476132142039   -4.04784445472049
H          -0.08251595248338   -1.25193785221391   -4.99446944468422
H          -0.74968508002038   -1.73234608799540   -3.56737420938708
H           0.56949746801816   -0.77166519036738   -3.55258178772714
H          -0.99051715337182    0.39794605977360   -3.35981855991222
