    26
        -50.45235264  Gyration_radius:  2.59576409002 Dipole_moment: 4.470
 S          -1.35476974505621   -0.08727539980436   -0.76917601930559
O          -2.41374474059464   -0.67261848859068   -1.74297481302668
O          -1.97928476536438    0.94663139005825    0.03973563388054
O          -0.83742238817593   -1.18401505131314    0.02643893791706
O          -0.28713206592022    0.49863924447547   -1.61121626250886
O           1.76442937862384    0.87267882891785    1.65211677352027
H           1.96104431956984    1.78475271555254    1.87085538093360
O           1.48642021875496   -2.37412289314793   -0.18867611850067
H           1.79172223111106   -2.39857304312169    0.74063598834322
H           0.52568844862862   -2.16244847374167   -0.14376688139599
O           2.41305562706528   -1.77143851774575    2.28980685318343
H           2.25047189895960   -0.81687102349296    2.22922405286459
H           3.32637235132479   -1.88637486689310    2.55545298694112
O          -0.69890890416968    0.44283696654047    2.26402818341518
H          -0.78573048439186   -0.51490464831843    2.21138497214753
H           0.79456902807961    0.73027393431552    1.90181926457902
H          -1.24906416165689    0.76329094611054    1.51155932833511
O           1.97109193077843   -0.00978739543617   -0.80281805347323
H           1.87961697092471   -1.06380932426218   -0.62808703502729
H           0.99988088387361    0.24056407085654   -1.22815470488144
H           1.95991491034240    0.40076842970424    0.11207176825146
N          -2.77436456904181    1.77960238481343   -2.55613630021489
H          -3.46204457201675    2.40543434577383   -2.95602728879859
H          -2.72692338812562    0.13541874700492   -2.23099371659510
H          -1.87534867007715    1.96444230196806   -2.98358550846763
H          -2.67953971345996    1.97690482978195   -1.56351740212831
