    26
        -50.45235271  Gyration_radius:  2.59581082392 Dipole_moment: 4.467
 S          -0.00261170059102   -0.38103405908577    1.51208688009775
O          -0.47857233220242   -1.09180684366854    2.80847051298842
O           0.67696954105849   -1.41014441587056    0.69301592209686
O          -1.18001980422738    0.12226822043899    0.83096423320495
O           0.93213599576250    0.67351823567895    1.86924129879788
O           0.68409198842000    1.20215576405284   -2.16680155430070
H           1.56490996309886    1.45973344015794   -2.44271940295583
O          -2.01389837055070    1.34832616937299   -2.88595416507675
H          -2.15573402160573    1.34484996537841   -3.83348227748421
H          -1.05896402857353    1.43853300052003   -2.73985552268838
O          -2.33357735343793   -0.84075782114310   -1.31454058960428
H          -2.13022722294101   -0.51571770632630   -0.40738513231383
H          -2.46268167447127   -0.03634120945970   -1.85650856241586
O           0.18610317740865    2.40327738186555    0.05496348247377
H          -0.75995110001632    2.27280626402027    0.17978611115925
H           0.58746624092603    1.86553200573011    0.77705634504225
H           0.51367313153598    1.68624603945738   -1.29508410264513
O           0.08599022177705   -1.29931504816246   -1.68416859846651
H           0.39039733382154   -0.37584604994544   -1.92963959749228
H           0.38054523438668   -1.41782991112480   -0.64248342968555
H          -0.98146427722041   -1.22304536729825   -1.61283550258779
N           2.04829039306632   -1.50610839086447    3.30810351601744
H           2.28423614768259   -2.13812337145176    2.55321672747875
H           2.71262559741251   -1.63348149104862    4.06112236121556
H           2.13263859083439   -0.56073474542178    2.94428909903387
H           0.37762833868625   -1.38696003580726    3.21914194812522
