    26
        -50.45235271  Gyration_radius:  2.59599242838 Dipole_moment: 4.468
 S           0.35586747732020    0.20469460092568   -1.50443719518781
O           1.17590020896004    0.05253192667653   -2.81475895206262
O           0.25365359970275   -1.10838597107514   -0.89702859316985
O           1.12013619226161    1.12678352924464   -0.63414485568452
O          -0.94159549849913    0.77693969098170   -1.82453140026979
O          -1.34795202237336    0.14331661325145    2.18478105062785
H          -1.87028593845214    0.87961324606255    2.50630231205936
O          -0.62969716941199   -2.49864503632867    2.75081938991121
H          -0.57646904092262   -2.68556863723958    3.68898842429820
H          -1.01807356097317   -1.61449530484320    2.65668371387104
O           1.54083712894330   -2.01950664553929    1.19446649132425
H           1.16421668928603   -1.87786841756473    0.29557074506036
H           0.82098567670247   -2.42692173963592    1.71730119278909
O           1.21219283688876    0.39562285585665    1.70453850510756
H           1.22690649135491    0.77178578141953    0.68267495285371
H           0.24099678786694    0.37796280508074    1.95371790422794
H           1.47713007576416   -0.63537113690366    1.57277261871280
O          -2.33884883910371   -0.57946003074099   -0.07857586801963
H          -1.91667998518524   -1.42716086110077   -0.25407674014955
H          -1.75676352189724   -0.12060083099815    1.29793957053651
H          -1.95864331427355    0.01175778409367   -0.76965417973648
N           0.76733726761268    2.60499546329922   -3.16820581432592
H          -0.15455053696420    2.36539049767240   -2.81341535809506
H           1.18330158682195    0.97993327574080   -3.17344255188791
H           0.67451768765229    3.31723214090954   -3.88144687507595
H           1.29557972088643    2.98542442074130   -2.39283848769396
