    26
        -50.45235268  Gyration_radius:  2.59590276461 Dipole_moment: 4.470
 S          -0.98853089683463    0.99700693520009   -0.68074195022995
O          -1.11424856555218    0.60087676047193    0.70873645551329
O          -1.79385872551378    2.31164458341163   -0.86874398073398
O           0.41952187426102    1.31545068866379   -1.00981176803893
O          -1.50315715121137   -0.00583396561913   -1.59877597135313
O           1.30247665550499   -2.17716979715707    0.41059036886316
H           1.68027807137574   -2.76557915737366   -0.24470504447693
O           0.68195582436595    0.78956170777625    2.60664582680984
H           0.64429029509228   -0.09894205583585    3.01474434863508
H          -0.13027210112742    0.85929249605903    2.05422378824772
O           0.88248351337246   -1.86040254404731    3.15706686526424
H           1.04275582823105   -2.14196714526852    2.24255391539222
H           1.57994010331699   -2.23716971300742    3.69515710905697
O           2.02613276209728    0.33329977881292    0.56021918506303
H           1.36976407142490    0.81342875677615   -0.16511576702466
H           1.57099670674569    0.60115033407805    1.49327886408922
H           1.84011214940872   -0.64695228354157    0.45942988156853
O          -1.23423237421149   -2.07004651933202   -0.01516909883182
H          -1.38509748223509   -1.40636740653235   -0.72815466519417
H           0.30892436117711   -2.15337749354094    0.22211564733343
H          -1.58174318372357   -1.63535803970446    0.77090262084983
N          -1.11685887224478    2.16878074271840   -3.38393342325553
H          -1.41623779692793    2.42414891477226   -4.31644464382463
H          -1.67272601807770    2.50137666884632   -1.83751798820919
H          -1.29675721779098    1.17973195580604   -3.23372441908422
H          -0.11591185090765    2.30341579756707   -3.31282614642711
