    26
        -50.46385727  Gyration_radius:  2.40983971133 Dipole_moment: 6.525
 S           0.35126923613412    0.12039259853676   -1.58184028488554
O          -0.53414082480154    0.86875001809656   -0.68212093470299
O          -0.39270962925372   -0.32786355454291   -2.76708516307093
O           1.56481909001037    0.83734786775024   -1.86572471532909
O           0.68183468712162   -1.21875620488748   -0.85368431685139
O          -0.37039428781818   -0.03096713202527    2.59014800876455
H          -1.10350328472936   -0.35558801396441    2.05491045909100
O           2.61621646379128    1.74360115864479    0.35682592505446
H           2.22333750160715    1.48672892346972   -0.51247637894607
H           3.52591490466333    1.98362746234632    0.17328929183431
O          -2.34458768721322   -0.52167940921841    0.43334884058171
H          -1.63095544018118    0.06736552278537    0.03999790693628
H          -3.11642436283960    0.03861822089519    0.53420656839392
O           0.09384278225906    2.37009137008129    1.46835518787421
H          -0.21081434369065    2.00228167133311    0.62005647437134
H          -0.27192762332149    0.92095123735480    2.36301740401150
H           1.04971008779157    2.44930924687601    1.35987726811972
O           1.84400341307242   -0.68739342960386    1.29956862304227
H           1.20729429212396   -1.03335706683792    0.02496486845140
H           2.23538298299783    0.19119095500096    1.12796211877396
H           1.07450174719949   -0.52861821629614    1.90490912150187
N          -1.73313334112436   -2.11066173638437   -1.62106729557179
H          -0.99619123986976   -2.72772404784021   -1.28409539466005
H          -2.43025929366493   -2.61383312762804   -2.16031480050568
H          -2.14555697245039   -1.60613855366156   -0.79545320475462
H          -1.18752885777629   -1.31767578029205   -2.22757557751594
