    26
        -50.45235265  Gyration_radius:  2.59585845625 Dipole_moment: 4.467
 S          -0.64037638557118   -0.48292799279093   -1.33733010442698
O          -1.32171966732528   -1.07393988479137   -0.16335246093636
O          -0.91068254481471   -1.43789640338195   -2.53205363371250
O          -1.20490876805703    0.82196648634865   -1.64047537707336
O           0.79422632045467   -0.43708764420378   -1.12926532668683
O           0.55537358157457    1.56423535483922    1.96327768670096
H          -0.02956830494843    2.17824541153552    2.40956468229711
O           3.20437781489779    0.67549961829347    1.86550547770447
H           3.64550408051892    0.70033962153109    2.71562301581891
H           2.35312505108557    1.12890225463879    1.97139734083203
O           2.18297811620842   -1.58755526291134    0.77046717658342
H           1.81533974862977   -1.29016890845984   -0.09345396862739
H           2.76182349386790   -0.85855497729612    1.07205853044950
O           0.66574708967808    2.26011367721543   -0.51270575160865
H          -0.11699822796537    1.86701020845561   -0.96494794747933
H           0.58121195187705    1.85891509359716    0.99591954560139
H           1.40408418081209    1.74976265760272   -0.86205348262629
O           0.03254917607742   -0.99856843916761    1.87942842113577
H           0.17514389662331   -0.01285215037255    1.99646650489952
H          -0.61660206837702   -1.08094792865682    1.00904786785682
H           0.96770308284368   -1.36501879611211    1.50300352625516
N          -3.43161164118080   -0.84432736248692   -2.21780710292341
H          -3.60571378246711   -1.25796284452043   -1.31023665543605
H          -4.31021123644723   -0.76156865679797   -2.71348797561702
H          -3.05030547303745    0.08373810629297   -2.05535317619007
H          -1.90048951497972   -1.39935124843049   -2.61923680280961
