    26
        -50.45235271  Gyration_radius:  2.59616332518 Dipole_moment: 4.464
 S           0.71594120936492    0.69108569388518    1.20070929357257
O           1.77083031203664    0.87374770224065    2.32573202788175
O           1.42120696080192    0.28567034196852    0.00011725097940
O          -0.20280909389268   -0.37755169464849    1.65512594946206
O          -0.01136332802702    1.93817553314266    1.03018101977791
O          -1.66904634775955   -0.32990331217680   -1.92753299368373
H          -2.59192603590331   -0.07313843301421   -1.95358470398677
O           0.38805318166618   -1.44194076253032   -3.46093101054703
H           0.08155828030835   -2.09032816582270   -4.09621516976764
H          -0.39822893448367   -1.01618435215121   -3.08439424617358
O           1.52109866401669   -2.09792334874349   -1.08368585193128
H           1.73657856277896   -1.22933465868462   -0.67301584560181
H           1.33966986257859   -1.90310349748478   -2.02526719709082
O          -0.27989685907716    1.80776768276204   -1.56847910712552
H          -1.14713999051841    0.52494734163971   -1.78640304703792
H          -0.27464030404026    1.99735111580207   -0.60124620334800
H           0.62425572184808    1.52688078202363   -1.74518380611361
O          -0.76839650485017   -1.98279237886526   -0.10914792658548
H          -1.20577273016217   -1.39267254275671   -0.79173892251253
H           0.20624627131768   -2.18237818795054   -0.50766781716744
H          -0.54692946878699   -1.31834295216540    0.72657403906704
N          -0.21845185825154    1.61081513664867    3.84360037942965
H          -0.45281664420272    2.18995856007521    4.64001283404664
H          -0.51446091394236    2.07851627883357    2.99110183615209
H           1.21509324290752    1.16636784928272    3.09693805556894
H          -0.73865326574711    0.74431024871569    3.90440116274233
