    26
        -50.46460222  Gyration_radius:  2.41131418926 Dipole_moment: 2.669
 S          -0.86042065794165   -0.77159292370762   -0.78437381583375
O          -2.17527235701274   -1.42699891951318   -1.26474686516607
O          -0.20055753759216   -0.16605268822485   -1.94866969787808
O          -1.20847719606260    0.27571867701901    0.18457972772603
O          -0.04455172511781   -1.80309650536749   -0.17546235305963
O           1.72947156113387    0.05788046144351    2.51103244629485
H           2.05692788930146    0.11174917180711    3.40949945578745
O           1.99902201198962    0.77128400906182   -1.24378215863366
H           1.12975219602480    0.39483393309409   -1.68114493094524
H           1.61225415077506    1.38753930644339   -0.48565871458378
O           0.83243671584169    1.87612854334893    0.68249457716780
H          -0.02425862281954    1.41511604636352    0.52451423871437
H           1.22291120943099    1.42254041474245    1.45364934497982
O           2.49875614237466   -1.20603756004539    0.20793561206264
H           1.62526018664209   -1.62712098995624    0.03931366119662
H           2.37567221276545   -0.05937167382146   -0.71109483761112
H           2.43025160227988   -0.82963196012155    1.10577348070356
O          -0.61893053972247   -1.09340612894319    2.38381369855319
H          -0.43898986770658   -1.87950713103937    1.85255556000373
H           0.83958008344886   -0.39330130126895    2.55866309532809
H          -1.02340770369540   -0.48504112101889    1.73400472242747
N          -2.84812632949308    0.91852636755725   -2.13971047792329
H          -1.93168081227532    0.97961373151702   -2.57029245432645
H          -2.79334821069446    1.39252650606446   -1.24636782849373
H          -3.52628735332563    1.38962332002369   -2.72487149698977
H          -2.65798704856791   -0.65192160545899   -1.67165397950226
