    26
        -50.46460226  Gyration_radius:  2.41130515035 Dipole_moment: 2.664
 S          -0.61058259270337    0.26416453728548    1.22774394222779
O          -1.69423296477588    0.56156333602313    0.31241036004282
O           0.32619455704155    1.38865686284493    1.35266208654419
O          -1.22501738867880   -0.00604164740506    2.62010622128531
O           0.11965832521840   -0.94218042319668    0.81767873162546
O          -0.45215522949763   -0.85698087399928   -2.89131600663137
H          -0.60767142583968   -1.34753170867072   -3.69912691580395
O           1.22676790446447    1.95450847327630   -0.90181491919173
H           0.90632890636090    1.85196089556146    0.08574383829035
H           1.59275955961656    0.99259281780485   -1.11329067732072
O           1.69822035020793   -0.48463241031569   -1.24972294765289
H           1.09465290797801   -0.71408997458917   -1.98168036608675
H           1.22542397743157   -0.76866805914077   -0.43295710218549
O          -1.01057130360730    1.66545092233475   -1.98678382475746
H           0.32023067574375    1.99240472254811   -1.44272832748142
H          -0.88559605961210    0.85186235356297   -2.51118419105660
H          -1.44389704435184    1.36918729209523   -1.15420515021986
O          -1.71777983759207   -1.89541015346241   -0.84757552029041
H          -2.32248176462493   -1.18661958452047   -0.59358267264651
H          -0.97086734735092   -1.31865935394620   -2.17334188096670
H          -0.99714345081949   -1.80538984726082   -0.19299950418704
N           1.20427634330541   -0.34834180093606    3.45877738738382
H           1.44848745997975    0.51660561510465    2.98850820148106
H           1.75353776082579   -0.43781837278706    4.30400901293596
H          -0.41358446217099   -0.18839369618349    3.17436077542396
H           1.43504213345170   -1.10819993202894    2.83030944923587
