    26
        -50.46460236  Gyration_radius:  2.41123174815 Dipole_moment: 2.658
 S          -0.52866811414290    1.25858931045482    0.29619081330952
O          -0.99060276291037    1.07922987659618   -1.06571820192928
O           0.86011949131402    1.73456696840784    0.34598974861362
O          -1.42565020572540    2.32390653808567    0.96670423861334
O          -0.65206255209107    0.01651096043267    1.07011375118899
O          -0.33250894610803   -2.52861725787532   -1.67083173498733
H          -0.60469221985712   -3.37487937138532   -2.02741176033809
O           2.32093682828163    0.11450315754626   -0.85978813930532
H           2.03776487720228   -0.72402507978827   -0.29428625247421
H           1.82736980633958    0.88798804481025   -0.36262739619077
O           1.21991427859096   -1.73395707054616    0.43074747042264
H           0.75746436600930   -2.23350087541539   -0.26872778988589
H           0.53013775619000   -1.14951666563939    0.82297768730622
O           0.65037257540696   -0.19023081767468   -2.69897044263589
H           0.33561642187193   -1.10154134816598   -2.54723368516153
H          -0.02013620162583    0.38704002619487   -2.26781121296380
H           1.75979867287653    0.00721576102218   -1.74842209872444
O          -2.32582339998229   -1.23585392645410   -0.56946760903151
H          -1.84588408126938   -0.90993966900926    0.21758737375415
H          -2.39239957517649   -0.44436703361242   -1.11856949837238
H          -1.14922063483518   -2.10942265556693   -1.27718703056131
N           0.04120864706646    2.00881044604437    3.08053156818496
H          -0.13852077812121    1.01795289775020    3.18922823596609
H           0.23646420085081    2.41282707559233    3.98771216230081
H           0.85825824953595    2.10342075608147    2.48684638061383
H          -1.02925668972999    2.38328995217929    1.88242345230894
