    26
        -50.46460202  Gyration_radius:  2.41147400008 Dipole_moment: 2.665
 S          -0.24290715453997    0.03174985109851   -1.37419247394788
O          -0.65319873539881   -0.46885923999941   -2.77777245138820
O          -0.08521573345941   -1.14299480782098   -0.50728567149282
O           1.04360641255186    0.73009970432446   -1.49670154350338
O          -1.29048429046595    0.90825401259415   -0.88963146331395
O          -1.24248775470683    0.27026767577206    2.77212576139219
H          -1.70712530566771    0.12797852280127    3.59747410676529
O           1.66755280196919    1.68465963704409    0.71996510963557
H           1.61629505880042    0.77511895368538    1.24374759188487
H           1.51435872527572    1.37602653839518   -0.26470078261471
O           1.15373158508428   -0.54536103905727    1.74711483240319
H           0.76489062237610   -0.91926480476232    0.92220607717851
H           0.38724303734791   -0.34368388793590    2.31681501048160
O          -2.40970423307096   -0.93610960876553    0.76228156473764
H          -1.75498729738781   -0.21961325662561    2.06854904018003
H          -2.66092804442848   -0.19812736612942    0.19225800673397
H          -1.60059191688238   -1.27371603868948    0.32951474255211
O          -0.67831790015081    2.42589107686221    1.18273189899595
H          -1.03248347546447    2.02464957202054    0.35675997395951
H          -0.95248194646898    1.81986109233628    1.89696487375342
H           0.75521013065368    2.15679267719351    0.96573516296034
N           1.59669144649628   -1.75708544970092   -2.81204576383188
H           0.12281312569443   -1.04695504112324   -3.02798209065551
H           1.42340581783255   -2.32005384007531   -1.98826251253003
H           2.22002838485289   -2.25858798709338   -3.43177814080782
H           2.04508661913825   -0.90093695634798   -2.50389081955981
