    26
        -50.45235265  Gyration_radius:  2.59664259551 Dipole_moment: 4.459
 S           0.99392638815238    0.43946596553852    1.11652373988258
O           1.09534182899647   -1.01053486815201    0.83514420073040
O           1.51811074259250    0.64594432355158    2.56392362938241
O           1.83705328732235    1.18833645214288    0.19906649214340
O          -0.38968608883872    0.87306700064792    1.08574170677028
O          -0.96902901248081   -0.30989683927521   -2.36283477089501
H          -0.49422091926962   -0.50947678034476   -3.17098793637825
O          -3.50785879549575    0.28482665389887   -1.35309681643011
H          -2.69164532939221    0.13632089802611   -1.85618642290498
H          -4.21733080888579   -0.14589219538568   -1.83171590507592
O          -2.54394784663867   -0.61578270474994    1.01842015873852
H          -1.84352957031251    0.03496011238554    1.25448234120393
H          -3.06437997365720   -0.19134856019158    0.30670970346383
O          -0.87956809528313   -1.91764456280203   -0.29972229998497
H           0.02015217236494   -1.58747750530836    0.21872278269955
H          -1.65943585370535   -1.49120887657915    0.30009025469991
H          -0.89176880681652   -1.38385838598259   -1.14853116764502
O          -0.05125292456181    1.91865606749538   -1.45709774931585
H          -0.68572374101791    2.16928215787233   -0.77728112000241
H           0.76559662775193    1.71706952380948   -0.94352687436382
H          -0.59104935469435    0.56665213011918   -2.02855227092813
N           3.81811150490891   -0.20863675707089    1.67789709145827
H           3.59486463578882   -1.17177944020174    1.46013747178461
H           2.46489442020157    0.34899796343720    2.49448637819697
H           4.81595859673976   -0.12998922426755    1.82818630428445
H           3.55641690632558    0.34994746138465    0.87000107854968
