    26
        -50.45235263  Gyration_radius:  2.59665933226 Dipole_moment: 4.459
 S           0.93680037015089    1.23216972431093    0.17754318183796
O           2.26185718696003    2.04065723695483    0.12331602723133
O          -0.16391255759815    2.14833079563256    0.42776696486926
O           0.80225769051297    0.52676591144730   -1.08254640212217
O           1.07189787311782    0.27751381143284    1.30107997663278
O          -2.16899241341620   -1.38257732415158   -0.00872860688709
H          -2.89448647498470   -1.34189533638977    0.61606328079274
O           1.18032432318592   -2.02249671706052   -1.55115910702003
H           1.21611079067315   -1.03834350203460   -1.55474812379325
H           0.38423883584519   -2.25598201447450   -2.07002541762538
O          -1.33742241643636   -2.59349774829267   -2.38780090929207
H          -1.66797221108878   -3.48632166650750   -2.49536951274167
H          -1.78802535720879   -2.21233300927292   -1.61773225257607
O          -1.93559443446119    0.94848473082187   -1.07666577960933
H          -1.39575179689717    1.50246514441354   -0.46562680760874
H          -1.34579341247211    0.80124624055976   -1.82363251752699
H          -2.09847555757586   -0.45796259013962   -0.41264944965848
O           0.26115789073814   -1.97286151368079    0.76296205566685
H           0.65531643653798   -1.00303392861014    1.06504596687291
H          -0.70307502773951   -1.79791235817829    0.55048736468385
H           0.72624747490929   -2.12248346336447   -0.19154887323167
N           1.62300838618431    2.93356479913395    2.48994502772317
H           2.26701434244171    2.50475227503438    1.00302482320756
H           0.69428697216947    2.95412725283383    2.07719371930113
H           1.68647000156363    2.08637277852509    3.04051583388968
H           1.73251309491229    3.73125049107418    3.10328951697496
