    26
        -50.46385733  Gyration_radius:  2.40985489353 Dipole_moment: 6.525
 S           0.06882910741518    0.64473456164862   -1.48951846326602
O          -0.05454138019584    0.01901229524613   -2.81334941607198
O          -1.03601420540814    0.21742482146337   -0.62338977533813
O           1.35709176445494   -0.01841998788302   -0.91201890353658
O           0.21911976925560    2.07455890792832   -1.50880414909860
O          -0.12324442207831   -0.79725149552965    2.48899285312671
H          -0.32013394749866   -1.46375894772560    1.82097649821546
O           0.19338743802393    3.01686455672060    0.93632887998171
H           0.54200328384534    3.90935599035892    0.90968493906134
H           0.13692626538708    2.72006819509994   -0.00429752724118
O          -0.98145410384557   -2.23409704303045    0.04200343146436
H          -1.88985443668709   -2.53270433238873    0.11552782269534
H          -1.03450799472796   -1.25255524242359   -0.16934789105923
O           1.69625228575983    0.80415762440008    1.42861382587139
H           1.22606700648321    1.66053569696103    1.43200883381131
H           1.12373132633493    0.17767436024923    1.94204788719121
H           1.55122114359790    0.33922017550851    0.04541136238942
O          -1.79208544127129    1.18896573347337    1.77608407724962
H          -1.28275080608629    2.00829608400799    1.80746962262014
H          -1.70720130569512    0.89284349198135    0.85263580372975
H          -0.83035777359390   -0.11825957423477    2.40841539649711
N           0.59496636319759   -2.29869291324476   -2.10984020618152
H           1.54094281508630   -2.14479627666999   -1.76532523484879
H          -0.03166293149550   -2.48274321966485   -1.28536368226569
H           0.27277342375431   -1.28920033151919   -2.52422169659100
H           0.56049675606259   -3.04123312088302   -2.80072429861881
