    26
        -50.45235262  Gyration_radius:  2.59671567263 Dipole_moment: 4.460
 S          -0.99203661074690   -0.21858108799601   -1.18147962231768
O          -1.44550105879130   -0.35918383016572   -2.66034752010469
O           0.21332490564305   -1.00794905473418   -1.01606555026490
O          -0.71180404443680    1.21852972876414   -0.96218221911951
O          -2.07308117377089   -0.65665123707043   -0.31385388859558
O           0.84154436000942    0.17327788466744    2.42495846362152
H           0.38193294306893    0.54062543742319    3.18140371069638
O           2.68256026530436   -0.15620585184239   -0.81673370019525
H           1.84968334043190   -0.60572969313337   -1.08873593245047
H           3.01312459299883   -0.66344112715834   -0.04799555505698
O           3.18663538427821   -1.14380793980861    1.66008399543697
H           3.95022490905383   -0.89298402367798    2.18158064379867
H           2.40791541907506   -0.75109046524958    2.08519536333548
O           1.34781845938832    1.62214209840940    0.30505814125685
H           1.15104929410420    1.15552964165820    1.17054048676524
H           2.02229562105331    0.96627570540223   -0.20949368591489
H           0.43235180399887    1.51802941402728   -0.27671774213080
O          -0.58387103512417   -1.77262165366634    1.52436114883622
H           0.00531996277251   -2.22482757773853    0.91127309311298
H           0.26300657693282   -0.58617194562588    2.09116262174351
H          -1.27429820163492   -1.38791228623931    0.93536741320535
N          -3.48118200534735    1.13593844996024   -2.00733562494800
H          -4.44869910993529    1.32106341640897   -2.24007485527131
H          -3.01920298027749    2.01398834658730   -1.80612295713334
H          -3.44224869446966    0.57538235541265   -1.16028055240554
H          -2.27686294357049    0.18637528538682   -2.68356567590169
