    26
        -50.45234142  Gyration_radius:  2.54420520267 Dipole_moment: 2.493
 S           0.06373171307963   -0.44347241906255    1.53586771005747
O          -0.27852899386578    0.96162072526358    1.59788551615120
O           1.35917520339728   -0.64098754036030    0.84543054721240
O           0.25670240082233   -0.94720249891647    2.98892210257223
O          -0.96562322376034   -1.24593526390083    0.89313844060808
O           0.21545101198334   -0.25263489452628   -2.74991755242158
H           0.32080955063290   -1.18917886646270   -2.92274266600678
O          -1.67093735080542    2.40653885994753    0.00313387439550
H          -1.18213419719066    1.84271996282858    0.66302885244963
H          -2.18235170428797    3.02912276020171    0.52232996480993
O           0.63834709727208    3.03341911421073   -1.17993705599948
H          -0.22069331855140    2.89324761806363   -0.71960857804068
H           0.43201826697842    3.16053658103321   -2.10875606381262
O          -1.90048488185745   -0.06593008760874   -1.27903332918327
H          -2.04347488045634    0.84029051748314   -0.97043260698554
H          -0.65248559029170   -0.16197689661763   -2.24942303520837
H          -1.64898328876049   -0.57525453697731   -0.47631162955091
O           1.84845355902786    0.76691803641250   -1.09255407912447
H           1.45987926959727    1.70170696157139   -0.99386886642247
H           1.66439886375907    0.18193811759879   -0.18033501612217
H           1.26481932619334    0.32152276556733   -1.81386022429489
N           0.68288537849576   -3.29269768081299    1.93754858571080
H          -0.07409962739172   -3.00010071683655    1.32570471200207
H           1.55149358947177   -3.13558165709283    1.44244368260580
H           0.47024251939241   -1.90797166350591    2.84504150018285
H           0.59138928710427   -4.28065730747112    2.13630522441378
