    26
        -50.45234152  Gyration_radius:  2.54417410236 Dipole_moment: 2.494
 S          -0.84212935449298   -1.32791382529723   -0.29653492596051
O          -1.70753591878982   -2.54463640222232   -0.71247877089659
O           0.45177806088136   -1.82779252146567    0.11713621900725
O          -0.71691066107307   -0.46934554851022   -1.49702823635887
O          -1.52950182475907   -0.60171626831852    0.76021747414798
O           0.53686421122815    2.71276038519783    0.14416030276756
H          -0.30157722180485    3.15624723893385    0.00844137027209
O           3.28752673202850    0.32830399601854   -0.29339673297325
H           2.94520276072569   -0.16691813826922    0.48575406052802
H           3.64597555892001    1.15243199941369    0.04390640243154
O           2.14290595183632   -0.87969374523018    1.79369385225403
H           2.54660517665203   -1.60936776190237    2.26624978896586
H           1.46757792600295   -1.29142257919085    1.18810949344956
O           1.20973166560001    1.02940669351992   -1.63521813880403
H           0.92719266485710    1.77680153716634   -0.98644165741539
H           2.03999799170544    0.62471144889580   -1.20941953953913
H           0.38147530023132    0.30717881749888   -1.61128083869222
O           0.11040446320916    1.02090665977335    2.04966377138363
H           0.40392092049318    2.11263441454340    0.94056112799632
H          -0.57461056808491    0.43140517440706    1.66208697455000
H           0.87849839218925    0.45198300773984    2.20219235973187
N          -3.61894471310112   -0.82449903033572   -1.13223413063176
H          -3.24892147249324   -0.30125868180552   -1.91553537409568
H          -3.24202919899404   -0.41084951844739   -0.28382261868965
H          -4.62736180443746   -0.74084939240756   -1.12744222464015
H          -2.56613502854616   -2.10850795970884   -0.96134001879698
