    26
        -50.45234143  Gyration_radius:  2.54420555477 Dipole_moment: 2.492
 S           0.72082413266478   -0.45791844985367    1.35251597690438
O           1.53823650415968   -0.94684799097906    2.57529150576191
O           1.37142954819004   -1.03346464845504    0.15276847686755
O          -0.62988831342595   -0.95801446265922    1.49637880890820
O           0.78082249681529    0.99463636163222    1.29769014131002
O          -0.23910814880429    1.11615622021576   -2.52386080515945
H           0.57570314683723    1.59554278164556   -2.67990513512841
O          -2.85527837317527   -0.00321463200192    0.65617249756453
H          -3.52649526108704   -0.16067285380286    1.32204805912918
H          -2.00548979083081   -0.35084750828903    1.04251721599320
O          -2.52209568271597   -1.55838181725169   -1.48773800762464
H          -2.91780882669546   -1.08279842333306   -2.22168465843585
H          -2.72147736886112   -1.03661162745204   -0.67688472235812
O          -1.11552834618389    1.98523848841619   -0.25398787699572
H          -0.63154708326038    1.50813177786566   -1.68460081315195
H          -1.89495732699305    1.49311803707716    0.04132010804534
H          -0.39728517794858    1.72741848589076    0.36619041510791
O           0.01102447018966   -1.32244810943823   -1.85787235562378
H          -0.03541227797947   -0.35516826286358   -2.20637457805637
H           0.60737128079997   -1.26144395202129   -0.93645244790552
H          -0.95317976019929   -1.55848730562841   -1.63651308419562
N           3.53091962704649    0.39227264628091    1.56324189337108
H           2.79338334257355    1.06009223377136    1.35578449598182
H           3.71476485110383   -0.13011974764621    0.71616226532100
H           4.36979542688373    0.89071646681972    1.83114853040851
H           2.43127691089449   -0.54688369794864    2.39664407396371
