    26
        -50.45901924  Gyration_radius:  2.46778552048 Dipole_moment: 3.255
 S          -0.18807132122371   -0.64114531447679   -1.19960003398491
O          -0.99011154579064   -1.19862513418730   -0.11860696577460
O           1.16962526141505   -1.16200480673956   -1.20167110405750
O          -0.88577281075651   -1.02355275748266   -2.52726064182181
O          -0.17449278645015    0.82849079518055   -1.11882375617815
O          -0.98649473534858    1.14490560265449    2.68515887737616
H          -1.30093352019969    1.91233036217455    3.16572805242498
O           2.21893207437234   -0.53004386825037    1.10010688570422
H           1.99527270158512   -0.86135948411817    0.19292785234593
H           1.61648651696788   -1.04095001510441    1.70127400910862
O           0.11437642924411   -1.50844854954925    2.32468890678677
H          -0.28620336607720   -0.75388947457386    2.77219899048186
H          -0.34275294175485   -1.58388717035514    1.46472151575022
O           0.93697457087188    1.57217332901939    0.97248941634916
H           1.61908622314202    0.69393650368328    1.08403680583786
H           0.46124015530336    1.36020665286405    0.05922428049563
H           0.22571066865398    1.46572832246455    1.67714730656114
O          -2.80055674362449    0.30481397464085    1.00559279832492
H          -2.17211892062928   -0.21809400290436    0.45158357603798
H          -3.47199317667161   -0.31807466340279    1.29102266040915
H          -1.72527654633686    0.86927516445420    2.07408031039281
N           1.08185540241549    0.19780380391019   -3.70075663574835
H           1.66371451079602   -0.28180153583409   -3.02055264866316
H           0.91813882250437    1.13348457827932   -3.35034640596957
H           1.57630095294392    0.25730801986789   -4.58183234316998
H          -0.27293589534346   -0.61858034222775   -3.20253169901665
