    26
        -50.45901908  Gyration_radius:  2.46793419869 Dipole_moment: 3.242
 S          -0.48967424069208    0.45346266729140   -1.19889561724079
O          -0.05310825334981    1.52487471189249   -0.31332376948925
O          -0.45864448838283    1.01485281392442   -2.64117496309175
O           0.45805319627084   -0.67113976746689   -1.14528009444979
O          -1.83566006206899   -0.00163269781994   -0.88833226402539
O           1.95873173811455    0.09219706913717    2.37749286674969
H           2.77261413330128   -0.23365959628080    2.76501321482303
O          -1.78951674582674   -0.84798496088398    1.57637039835648
H          -1.55921141848226    0.00079744335118    2.03734538678791
H          -2.00122070547974   -0.57065510301058    0.64813996920605
O          -0.62985390126329    1.38449937791158    2.31943741742302
H          -0.49449330440917    1.61891032955048    1.38081684305017
H           0.23462466756750    1.11601183031559    2.65231430099426
O           0.49081491174545   -1.66950154856159    1.12810418548052
H          -0.56233688284719   -1.41015482339120    1.40497072093841
H           0.54243540195610   -1.32684094637191    0.13632889599299
H           1.08013985568463   -1.04896255442035    1.65812217403018
O           2.46595375617392    1.65717634279972    0.34952411039345
H           2.61969960958449    2.59410569319561    0.48656835657532
H           2.22140587505556    0.68819499638931    1.62202460832791
H           1.56091661475176    1.59086740348079   -0.04001878357092
N          -1.35723838089272   -1.30941477589356   -3.37068129489210
H          -0.77942811017046    0.23208983005972   -3.17016563602554
H          -1.85183321912853   -1.77597563736089   -4.12043333425592
H          -0.57156396083082   -1.88175397805216   -3.08729355090782
H          -1.97160608624844   -1.22036410975268   -2.56697414118601
