    26
        -50.45901904  Gyration_radius:  2.4678945946 Dipole_moment: 3.240
 S          -1.20531671019370   -0.65559221154677    0.02155132269194
O          -0.08283841397624   -1.50311802785790    0.40154841196650
O          -2.33800133295806   -1.59202117855015   -0.46451182756195
O          -1.68861206937700    0.14694433285048    1.13399426034295
O          -0.83302044140032    0.20726810705182   -1.11090707771822
O           3.02949246260105    0.15976578829994   -0.54401609939362
H           3.72710857777323    0.39809858312905   -1.15663366690841
O           1.84278629330216   -0.50782282942943    2.00929750919040
H           2.52800949435398   -0.34929045330115    1.34933601796278
H           1.14612384679229   -1.01990302571883    1.55463449124058
O           0.31280694492083    1.62078956511102    1.91833861460116
H          -0.54547647971244    1.14635143530745    1.77146317208408
H           0.93916684565554    0.90679944284521    2.20803402955308
O           1.77966671101069   -1.98294990330865   -1.35994075448349
H           2.60303890900605   -0.66640272082425   -0.90536369484532
H           2.10411337155361   -2.85348583201640   -1.12085546069187
H           0.97920640069327   -1.83544366247133   -0.80068172809721
O           0.97773627492164    1.77269107633496   -0.45029208566115
H           0.20840450342988    1.16236696663041   -0.82366030769508
H           0.71336464926983    1.83448498715904    0.63586468421538
H           1.81362047577473    1.21441460778719   -0.50336892370932
N          -3.73587920923785    0.57057936001923   -0.79684126748816
H          -3.35237455719153    0.84503005646400    0.10250602184524
H          -3.17521977311162    1.01680174002131   -1.51209129942247
H          -3.05883919602535   -0.93913957457982   -0.68750639987896
H          -4.68906757783802    0.90278337059880   -0.86989794217013
