    26
        -50.46385732  Gyration_radius:  2.40983118289 Dipole_moment: 6.526
 S           0.84916071322418   -0.15026650055916   -1.37686979358331
O           0.40432917794556   -0.36791565449600   -2.76034286050291
O           0.38063615047213   -1.45052840813718   -0.65398765047871
O           2.26850808033662    0.01566761967014   -1.21763026793433
O           0.09329653306315    0.95143187697875   -0.77004490906032
O          -1.14864948192728    0.31978749399684    2.32924490773199
H          -1.74055287015469    0.26293552490897    1.57051728224067
O           2.83223578358359    0.61639063367297    1.26986544223500
H           2.66584606273074    0.46409670135046    0.30799163634012
H           3.77052864852373    0.47017718070664    1.40047365831150
O          -2.36753102304211    0.46273668334560   -0.36943419470794
H          -1.39610074653268    0.69660502424674   -0.48134780214847
H          -2.84736788330005    1.28419000045367   -0.49102306675387
O           0.54675862438873    2.25654578756028    1.54607648245499
H           0.40644218084331    1.97005494830751    0.62630480561852
H          -0.61909970909785    1.13809477699423    2.19700251282994
H           1.43825290567932    1.95034165631011    1.75393727581448
O           0.91520462817338   -1.24280864103377    1.78328420849218
H           1.65202578229160   -0.60122680475995    1.79380897693367
H           0.12148010839609   -0.75085723035312    2.11772717418588
H           0.63076684290528   -1.41438297966740    0.35522552240824
N          -1.81393278130880   -1.39565874097237   -2.20235280538608
H          -2.44363455992337   -1.62973907403115   -2.96301240876809
H          -1.52525478180058   -2.22162721992810   -1.68100022899690
H          -0.84034100253360   -0.92655477645039   -2.55815557513006
H          -2.23300737285022   -0.70748986811993   -1.52625830221317
