    26
        -50.45901908  Gyration_radius:  2.4679431101 Dipole_moment: 3.244
 S          -0.82990417299622   -0.59533765003235   -0.91662325988259
O          -2.02922376471733   -0.73971141163871   -1.88436649664279
O          -0.20895683073771   -1.89580123621716   -0.72202671949101
O           0.08618901011315    0.36861944192954   -1.51160940036904
O          -1.35472588250784   -0.08067709373573    0.35837089410961
O           1.54980545285868    2.40469287739292    1.14599886141728
H           1.55756044984203    3.13760197380704    1.76372284530342
O           2.65204939135628    0.44598425742955   -0.67813017804429
H           1.80331154148258    0.41418365556994   -1.16071621607661
H           2.60905514279178    1.23022816032938   -0.11842351389808
O           1.83459109486506   -1.52164520215008    0.85283965298450
H           2.37824883105623   -0.92245280457466    0.27744903680919
H           1.11982249110423   -1.85364417019189    0.25126374510201
O          -0.10460498322518    2.87555995647080   -0.81837855178297
H          -0.17915856352475    1.93150900579153   -1.09859000903517
H           0.91174662002918    2.65138455714877    0.41989671343036
H           0.19130896522031    3.35251510718885   -1.59634813384047
O           0.48110716673420    0.18423266341635    2.00858139102783
H          -0.36347556620170    0.09833648640816    1.38893629553596
H           1.14156195856541   -0.62442111819840    1.60793636268112
H           0.91639573299355    1.05466011994530    1.75068306238167
N          -2.94186597420109   -2.49458098557267   -0.20223868634625
H          -2.58957013608924   -1.41747490975036   -1.41307440552692
H          -1.98320533032948   -2.82849285230113   -0.17396577928631
H          -3.07479004628970   -1.89278453662099    0.60107819925216
H          -3.57327258819523   -3.28248431186880   -0.13226571980170
