    26
        -50.45901910  Gyration_radius:  2.46781778264 Dipole_moment: 3.244
 S          -0.60195717529354   -0.82787236415425    0.91415970711280
O          -0.94326546371288   -0.90205339282698   -0.51541599824909
O          -1.75373591419067   -1.50125140430876    1.69893631925268
O           0.63944213663078   -1.53802826864838    1.17723568500114
O          -0.54367397216120    0.56165001956675    1.34811125343364
O           0.28232143179476    2.66353269936908   -1.52401011873034
H           0.07048564264278    3.16774228903133   -2.31121140875823
O           1.70123128030783    1.99356968327184    0.90826684955739
H           1.40517756709011    2.51737073345206    0.15451460910137
H           0.90471750874073    1.54456967414816    1.25215138205814
O           2.51291806614561   -0.27717451832373   -0.12466851070112
H           1.95005978456923   -0.87219092752303    0.43420516644292
H           2.47144491056801    0.60109083072926    0.33660585708204
O           0.84319515161663    0.13973305943345   -1.88951199218175
H           0.65873994421978    1.12698043021450   -1.82020509041880
H           1.69104014273066   -0.06824167673214   -1.18939739909153
H           0.04091632757203   -0.33050639540733   -1.40033230673643
O          -1.83633363328306    2.36076374309718   -0.02802042515398
H          -0.56048762222849    2.59450962133761   -0.99487471883522
H          -1.47202851511731    1.60099077803100    0.48711255918148
H          -2.06818370820492    3.02595225379200    0.62316643071370
N          -1.08979288366944   -3.67776074378683    0.44850899228295
H          -0.13651783678641   -3.39378257711423    0.65324522158165
H          -1.15874029543253   -4.68588430296158    0.50605534044191
H          -1.71335442658623   -2.43699996336421    1.35495907356485
H          -1.29361847796949   -3.38670929030529   -0.49958646795633
