    26
        -50.46405135  Gyration_radius:  2.41199685028 Dipole_moment: 8.296
 S          -1.46477509691780    0.00947848733964   -1.03613452487294
O          -1.99725828079580    0.92345388322481   -2.01348319100339
O          -0.94931384682505    0.71093597491739    0.13883937004504
O          -2.58289897130901   -0.95030768665202   -0.58159707789725
O          -0.36620853588228   -0.81589294540905   -1.59871580539698
O           2.03309722772305    0.02106314424214    1.41643800912029
H           2.72512858361639    0.06466893649651    2.07745350923324
O          -1.51475955192791   -2.19349603006153    1.41514791021597
H          -1.27961530107827   -1.51277861214204    2.06180536704252
H          -2.23306950590832   -1.48506719842527    0.19813154128076
O          -0.14665900346514    2.77259898032319   -1.94018336380116
H          -0.16746592673079    3.13134942560693   -2.83003256124097
H          -0.92576685816159    2.16494920942655   -1.88566999831404
O           0.86750275222274   -2.35590936175696    0.20907554744691
H           0.43635988031743   -1.93258289599135   -0.55919819810129
H           1.39736054969807   -1.66601856748742    0.62904796506167
H          -0.65710691206732   -2.48436539245906    1.03116220943931
O          -0.39289893468631    0.13518857773200    2.54489895524920
H          -0.70784746226537    0.84606866202162    3.10489580035182
H          -0.68649232223809    0.37196334950971    1.61771044521361
H           1.17553294206053    0.07127609096462    1.90020454354796
N           1.52677641681574    0.84796845700403   -1.18036109328679
H           1.74325856474570    0.74095863479925   -0.17456694724411
H           2.36533414500925    0.76485116643639   -1.74609923817398
H           0.79718885297803    0.07815483261927   -1.42329194259536
H           1.00459659500934    1.74149090781074   -1.37547722124231
