    26
        -50.46405141  Gyration_radius:  2.41208914333 Dipole_moment: 8.295
 S           0.56674002482595   -1.02442416756359    1.35969628610085
O           0.25756086299756   -1.80699749536974    0.13634920509263
O           1.86192882664326   -1.36009162902803    1.89244199836216
O           0.46816535135393    0.39601001508183    1.02660158987936
O          -0.51202026764993   -1.35670045100763    2.41032878095996
O          -0.74594489683704    1.42522114198253   -1.88506287394674
H          -1.07486105282609    2.07597510264690   -2.50658528866739
O           3.37832443200861    0.00608884012778    0.25410257378017
H           2.82895522697451   -0.40193883187003    0.96888522636252
H           4.18742854183381   -0.50950437465741    0.23143702040294
O          -2.65272387034955   -0.31893897518597    1.40341310281661
H          -1.39004729405899   -0.98886321542339    2.07857669558159
H          -2.46976718843698    0.62565995638403    1.29786586974706
O          -1.38605708634835    2.07987340922608    0.63139197610586
H          -0.66188293556192    1.42891963162047    0.86353255519127
H          -1.14554354124534    2.89930978599537    1.06584810404856
H          -1.01351353478052    1.73081550706316   -0.98667423977103
O          -2.00843722278299   -1.07035306204371   -1.08199898895934
H          -2.63883628669289   -0.68276069818038    0.48961117517111
H          -1.67690989936604   -0.26451000157075   -1.49882518175811
H          -1.23022275298520   -1.50424141305193   -0.68022561836791
N           1.42379514134786   -0.26314575341752   -1.53179323655500
H           0.75767338170129    0.51650964138839   -1.66702697342800
H           1.71150950062549   -0.65710216152541   -2.42180785817957
H           2.24725877112471    0.02313759008830   -0.94103243474404
H           0.91742776842528   -0.99794839168616   -0.90904946521621
