    26
        -50.46405143  Gyration_radius:  2.41200609232 Dipole_moment: 8.295
 S           1.05126394251358   -1.44747221202110   -0.13630712024796
O           2.54717932414940   -1.14023868352123   -0.35042774946316
O           0.71981083357626   -1.10483298000923    1.26987347804389
O           0.26865186273713   -0.57646361477629   -1.01219952067987
O           0.81202252631208   -2.84005727901353   -0.41480831249221
O          -1.48276562701372    1.97718471108964    0.17834298287460
H          -2.00157238469608    2.77981778829439    0.11054880107964
O           2.64802544746216    1.43571482485022   -0.18519549238443
H           2.06365142067190    1.77272562797544   -0.87933133691119
H           2.66952007811003   -0.14150348994988   -0.28784388213160
O          -1.78804264809235   -2.78850490946418   -0.70905924567646
H          -2.05259562565399   -3.66743379041138   -0.42892952916173
H          -0.79937544659298   -2.81238330439997   -0.74389362520351
O           0.35029226750129    1.84214279920840   -1.76929611845045
H           0.36947350953625    0.87114106162841   -1.52668913505414
H           0.16071784192802    1.86999623758973   -2.70813968533335
H          -0.83663938410229    1.99373889185218   -0.56614102215524
O           0.87591165797412    1.51002287005069    1.81748815215348
H           0.04949105102244    1.78113500476404    1.39728679964689
H           0.88838133077229    0.53344050005163    1.77922091029141
H           2.16342889155355    1.59990508144862    0.65494087191974
N          -1.77391359403942   -0.67924057403633    0.91359687675682
H          -0.73393290129718   -0.85587501958580    1.18055283668836
H          -1.81496509593659    0.26914582043811    0.50268456401938
H          -1.96583786011498   -1.42563235528949    0.19586983234958
H          -2.38818141834245   -0.75647300672621    1.71785566961333
