    26
        -50.46405136  Gyration_radius:  2.41195289693 Dipole_moment: 8.297
 S          -0.26919861924627    0.86735057267957   -1.54725424235540
O           0.11020872051309   -0.46957269263345   -1.09236742847113
O           0.98133109858339    1.56118872386714   -2.12418838794538
O          -1.29006432874484    0.81724135714702   -2.56186949878975
O          -0.71004079309511    1.64877317075645   -0.36419762212918
O           0.33980089679684   -1.21875627990224    2.13015920385848
H           0.57767143665898   -1.76759373131576    2.87854921918396
O           2.76412648869811    1.17522881547583   -0.29506551948730
H           2.84490588662527    0.21584297040061   -0.19557363615192
H           1.72703022614485    1.46148239230725   -1.45310427555874
O          -2.84319079083374   -1.02047143320452   -1.53247267162762
H          -3.71072257703265   -0.77694089206299   -1.86270342007044
H          -2.20738594742657   -0.43151817195580   -2.01022763395099
O           1.01022284105577    1.57727748115420    1.68444876392144
H           0.35921699312802    1.77304136718307    0.98214869176383
H           0.79862184023535    0.68996021655590    2.00216015260896
H           2.28759195165327    1.47387433742132    0.51198770913739
O           2.07345982836657   -1.52920117230918    0.11276210280667
H           1.01405770282855   -1.38597996951521    1.43053467204325
H           2.27607132988209   -2.36175431537143   -0.31604105466866
H           1.33916985301846   -1.11815012858427   -0.42932224465847
N          -1.91616199389518   -0.25365625830362    0.84122812184443
H          -2.31844734930893   -0.74853166167159    0.00315843944098
H          -2.63090120026428   -0.00859988746284    1.51889827658302
H          -1.15592865363242   -0.79946718738897    1.28185105652367
H          -1.45144485078006    0.62893238679656    0.40650123611527
