    26
        -50.46385729  Gyration_radius:  2.40975728431 Dipole_moment: 6.527
 S           1.09506396780736    1.09368873807009    0.49348527959681
O          -0.40803339548485    1.35916250394741    0.81406755453946
O           1.74477816651894    1.28021697566047    1.79821501663655
O           1.18442415554836   -0.31158446794100    0.08030242992010
O           1.54288585111855    1.98980209446599   -0.53787508028219
O          -1.71863586784336   -1.67950986673498   -1.03510914172661
H          -1.42959747400621   -1.87177274084043   -0.13584285147848
O          -0.18222592219556   -1.92534062640104    1.48847563346856
H           0.29918966433029   -2.75413372620359    1.52456159643399
H           0.35347917083920   -1.32630086193044    0.88413192162808
O           0.44076238704316    1.35048863523867   -2.82746150500016
H           0.54808036068420    2.09533502844274   -3.42123646767281
H           0.93652365008427    1.58568945635147   -2.00582605744081
O          -1.74763451394977    0.95601378040178   -1.26233187382405
H          -1.09542879926973    1.09591492875296   -1.97620677607018
H          -1.89332814818682   -0.02403792608342   -1.21544588301598
H          -0.98720832026816    1.24431899158424   -0.04273879100851
O           0.63396038153443   -1.42253084019144   -2.31477361910554
H          -0.91720130868948   -1.76240165678056   -1.59929053293760
H           0.56829079260454   -0.63438415065927   -2.86816618318049
H           1.01983262616409   -1.09621313494495   -1.48276482793558
N          -0.01302297149355    0.13665609766966    3.17318769993693
H           0.84544232354627    0.65773439307132    2.63835712669870
H          -0.82617243600617    0.71908294330428    2.98091149673748
H          -0.14104256732914   -0.78351001367096    2.67994235865869
H           0.14681823765914    0.02761545506212    4.16943147697263
