    26
        -50.46893905  Gyration_radius:  2.40456009948 Dipole_moment: 6.282
 S           0.93737451965688   -1.12696232332701   -1.08004754498169
O           0.13291801603533   -1.48675670069235    0.22997631253433
O           0.59266746501169   -2.17810052917893   -2.00052295446075
O           0.38321772538488    0.17767165789794   -1.52045972688145
O           2.33132017835453   -0.99323103963973   -0.72907902483505
O          -1.41220104299198    1.52562489596048    1.31481455191818
H          -1.84726664717862    2.24421574824204    1.77489431195172
O           2.73827091167143    1.02970966784137    0.83272853754243
H           2.62182211237049    0.28192488415762    0.18372325230138
H           3.66558992448349    1.01662350783833    1.07424857113513
O          -1.84772654644773   -2.67454698997879   -1.21537025901099
H          -0.95256756775167   -2.57093790637449   -1.63095888816926
H          -1.67896027432134   -3.17462750756745   -0.41331148878338
O           0.56205009220020    2.41666251434348   -0.13112907633824
H           1.41410704399292    2.27848437614722    0.30819155449991
H           0.54092140176276    1.70540186842022   -0.80599114464596
H          -0.68721724470693    1.94326529864807    0.76176442792168
O           0.70945827728128   -0.02378122272592    2.27076113371072
H           0.43839904569493   -0.98318556389956    1.04062478682194
H           1.48969284341897    0.45398100067466    1.92637376254455
H          -0.05805651940604    0.55983155487692    2.15878649919839
N          -2.05719723266878   -0.07408677975513   -0.86181290934001
H          -1.05733307034358    0.10082465915183   -1.25117322852811
H          -2.76496322565561    0.35434316358286   -1.44896221893851
H          -2.13345021556783   -1.13517658050578   -0.87499884152107
H          -2.06086999028247    0.33282833586157    0.08692958435464
