    26
        -50.46893910  Gyration_radius:  2.40454078287 Dipole_moment: 6.284
 S           1.16940588534244   -0.01823319645737   -1.39537219438977
O           1.21150720827970   -0.66311458394894   -2.68124341149441
O           0.84272767755335   -1.19082617671599   -0.38984659590525
O           2.37754907377386    0.63364952470733   -0.94838295023737
O           0.01110381992603    0.90425721336660   -1.29331725583509
O          -1.73158030874186    0.00918907314568    1.74699938446878
H          -2.37265432255876    0.18657441564273    2.43611887242480
O           2.03951288604512    1.82980357920601    1.32156980811108
H           2.89193111035842    2.17966234805866    1.58496605041680
H           2.18269182414939    1.43156271207246    0.41893830351615
O          -0.55972230780968   -2.54245669565141   -2.29475814654017
H          -0.05367997126071   -3.15660436308675   -1.75752343722247
H           0.10628805789792   -1.86654819570671   -2.58507844933710
O          -0.65386698913425    2.22240970896568    0.89663077278460
H           0.22210124290102    2.36343036857501    1.28503604796180
H          -0.44846876056673    1.90973005949878   -0.00990647591465
H          -1.38128054504075    0.90130291995566    1.45172363896636
O           0.98933824999808   -0.53405403778508    2.09690534287200
H           0.03177287815084   -0.40810567500014    2.19344958605857
H           1.00398353954782   -0.95345866931438    0.57025901272276
H           1.39221918769928    0.35320542624733    2.01835788749983
N          -1.89458638794248   -0.73400135073205   -0.92377703298566
H          -1.47043848851263   -1.60034529546525   -1.37253340386241
H          -2.80302576778070   -0.51948065967781   -1.32117913528775
H          -1.93705073802323   -0.77654123117386    0.10686525147487
H          -1.16577804425223    0.03899277127480   -1.15490147026652
