    26
        -50.46893904  Gyration_radius:  2.40456108171 Dipole_moment: 6.285
 S           0.76695992530832   -1.58336901232865   -0.46850784598898
O          -0.12093953090095   -1.27517883109727    0.80009995783258
O           0.27820222407534   -2.85357257396355   -0.93616926420051
O           0.44853833816302   -0.49725676919960   -1.42868422973416
O           2.15384166848311   -1.51958900315939   -0.07260412029439
O          -1.17655716514570    2.10420489886982    0.48704491732298
H          -1.50058054926529    2.99961813157180    0.58981003238893
O           2.84781669635782    0.87804797034234    0.61100665570336
H           2.62681056635940   -0.04142484804377    0.29548196148745
H           3.75281450759959    0.83080531314962    0.92277413955093
O          -2.23113557708160   -2.64674887800755   -0.24386369605928
H          -1.32026169141550   -2.84458034969964   -0.58439880717908
H          -2.16907058457409   -2.80482321495011    0.70114085038150
O           0.95667883511822    2.05992008334538   -1.00645411852177
H           0.83684084322406    1.14979743103570   -1.35150662471479
H          -0.37761461436916    2.16120340180023   -0.11641693618384
H           1.76226949373392    1.98947122915703   -0.47347529851541
O           0.63557491559021    0.78066288784262    2.15626307946665
H           1.49272706705335    0.96682592862777    1.72450136692401
H          -0.02195214747984    1.37366507225263    1.75864698171156
H           0.24216425626727   -0.53985020281390    1.37582319287143
N          -2.01700676420659   -0.11906640391243   -0.94848588859994
H          -0.99171671426304   -0.25661714669221   -1.28284321004230
H          -2.62795722099122    0.13586260448155   -1.71721162482220
H          -2.26745613990381   -1.07549663516674   -0.55559450541141
H          -1.97899063773487    0.62748890655838   -0.23637697537450
