    26
        -50.46438260  Gyration_radius:  2.63097525688 Dipole_moment: 4.460
 S          -0.11931461517428   -0.43826197808446    0.45258908283798
O           0.01593798020866    1.02091064727219    0.30228902972275
O           0.03408658713205   -1.10328006024106   -0.83932735765320
O           0.82844882143853   -0.95670571115461    1.41982631708092
O          -1.55253385193560   -0.72558030222524    0.96578259355606
O          -3.31957629967064    0.69667009482095   -2.21343202200210
H          -4.24001867212781    0.61183498500918   -2.46648804106799
O           2.64256556565454   -1.19821587144559   -0.84378344531594
H           1.66895350225334   -1.21786403679647   -1.01055306232957
H           2.76640555308178   -1.82273599939829   -0.12409599453865
O           2.58528006600986    0.42101444941359    2.78405066899318
H           3.09621004752021   -0.19244095318940    3.31417104631051
H           1.83216092286100   -0.10057155996753    2.41394249884618
O          -2.41947096663819   -1.74733229701986   -1.61190094394697
H          -2.76021688638227   -1.96445742516456   -0.74002038245034
H          -2.97268915078571   -0.22162684941289   -2.12129182104054
H          -1.46592212223919   -1.57361206049644   -1.46852155904575
O          -2.62834305296279    1.45548131652321    0.24929981223470
H          -1.71514519708208    1.77100624319964    0.17334845735359
H          -2.93680032104720    1.29277086121476   -0.67332127675741
H          -2.09570206216164    0.10792151919948    0.75304953247107
N           2.58508316669075    1.20770789927755    0.24550489873703
H           2.78210416660619    0.30051463441077   -0.26859653037708
H           2.83615002919281    1.07924411504138    1.25142726351476
H           3.03805800737912    2.01069048664031   -0.17649526367139
H           1.51428878220061    1.28691784255217    0.23254651853565
