    26
        -50.46438285  Gyration_radius:  2.6308231053 Dipole_moment: 4.456
 S           0.43925956359041    0.46438638837144   -0.03146779902143
O           1.71217183510781    0.33232268711098   -0.90455811999561
O           0.65350489290748   -0.30774669402965    1.19028117286856
O           0.23132114276771    1.86734815376742    0.27034364303376
O          -0.68834206599903   -0.08851865841730   -0.80152713552345
O           1.63365096150127   -3.56568202236771   -1.01428871709405
H           2.32074790456717   -4.16139612815772   -1.31677948631538
O          -1.82667358445664    3.32724312169496   -0.42204329315588
H          -1.70438455211798    4.20522865464690   -0.05789266370062
H          -0.96930327088517    2.85486401451571   -0.28810979129614
O          -1.13154244299373    0.91121630498273    2.65368320540085
H          -0.44517411068625    0.33575893721562    2.23674764087490
H          -0.70714299874434    1.77134523051095    2.71217600273131
O           0.87822982089189   -1.46908799194719   -2.48148281543052
H           0.00233451458412   -1.22492033786754   -2.14617072992844
H           1.49278953671074   -0.36477503443023   -1.61243367013251
H           1.11210799696478   -2.31767630706540   -2.03659634890810
O           2.75472677407481   -1.85008474077679    0.70207997710150
H           1.97356202861112   -1.35585172575791    1.02687731469227
H           2.03327924593389   -3.02744514885679   -0.29137376307584
H           3.24471947563095   -1.21151386079989    0.17708116259226
N          -2.64868791432180    0.97074154155840    0.49216817858230
H          -2.21205730507630    0.94278943655662    1.45908709211806
H          -3.57445219784796    0.55835551002014    0.46139513375446
H          -2.62971811251489    1.95711803840397    0.14902982571767
H          -1.94492715817971    0.44598064105928   -0.12622601591011
