    26
        -50.45940117  Gyration_radius:  2.54047117475 Dipole_moment: 6.855
 S           0.13842765151016    0.91324286247083   -0.53666234412910
O          -0.83788852707183    0.88606095298368    0.55640726731515
O          -0.00631534826543   -0.44500108127026   -1.28562258875580
O          -0.24755627449361    1.90563778813117   -1.54812400631085
O           1.49208178126163    1.06661904903177   -0.06272682364013
O           0.90988842201144   -1.66543242750325    2.62624626765257
H           0.08965727492961   -1.92906270314783    3.04498028181681
O           3.43342395588998   -0.75959867178299   -0.21296125430464
H           3.91028127217966   -0.66494340554813    0.61400349662296
H           2.80884935634804   -0.00695036036765   -0.25370864114476
O          -3.28783032887903    0.53582716188479   -0.19864853223848
H          -2.37010726650704    0.60147120420358    0.18124058467996
H          -3.77838710445409    1.26173096723173    0.19123814079962
O           0.84254052571607    0.99847974888574    2.60769882257573
H           0.95084824980501   -0.68209694727512    2.70578145605800
H           1.57257535115839    1.28056755197275    2.04597875904268
H           0.07967570104168    1.01986151585205    1.99815170688064
O           1.19315849482982   -2.21469344525132    0.02288065521881
H           0.45874101336764   -1.19778055093409   -0.74121158236726
H           2.11256283971610   -1.91187257897973   -0.13850221699377
H           1.05148715447419   -2.08544547365186    0.98949095724721
N          -2.13739943503950    0.61195848006231   -2.56370304518869
H          -1.69325999036796   -0.29611321315132   -2.69434194661131
H          -2.59004242069806    0.94176978257535   -3.40946768519300
H          -2.79131101330041    0.55635843508139   -1.73383289103690
H          -1.30410133517663    1.27940535844365   -2.20458485799807
