    26
        -50.45940113  Gyration_radius:  2.54040606661 Dipole_moment: 6.855
 S          -0.31773566427321    0.97218937489544    0.30789715591963
O          -0.18604932097597   -0.19274280349663    1.33370124084581
O           0.83931498569652    0.86584580885695   -0.58578610364071
O          -1.57092947780022    0.86100236618725   -0.39755048546370
O          -0.21603148191779    2.17684311440992    1.14178175718201
O          -0.25915129149093   -2.22734616609921   -2.33866686095818
H           0.64399185355201   -2.45890349979205   -2.55870336849042
O          -3.32905554333166   -1.13679359659437   -0.18659839122859
H          -3.65422913885807   -1.25956039607580   -1.08065424981367
H          -2.79493917500354   -0.31660833895833   -0.20240254090458
O           3.13236519310938    0.97516426437695    0.60777758455910
H           3.61671491886515    1.67136537392735    0.16021961932236
H           2.29703686523720    0.85209625775319    0.08061239985835
O          -0.44309520448231    0.37980278014124   -2.85809544641906
H           0.19089321366892    0.61113733560830   -2.15206627746279
H          -0.37568389455941   -1.28932230798127   -2.62412924133608
H          -1.28604296919744    0.66658285347741   -2.49036730622960
O          -0.95776472669078   -2.31338980157318    0.24268500337832
H          -0.47224149455183   -1.08676470431707    0.88856938009254
H          -1.91533020428007   -2.10521561366900    0.18953823803715
H          -0.65554686589881   -2.34942849921918   -0.69459000720737
N           1.56902961665054    1.34654911983841    2.69123532856907
H           0.75675126113440    1.82359833912728    2.07357099401221
H           1.82784135536463    1.88397222181917    3.51171393219832
H           1.19469054025823    0.43018870142905    2.93423469148329
H           2.36519664981297    1.21973781595093    2.00607294368393
