    26
        -50.45940104  Gyration_radius:  2.54013202344 Dipole_moment: 6.858
 S          -0.69537817269004    0.49312641593227   -0.64436564285626
O          -1.08392517914091    1.10931877770465   -1.91959538396372
O           0.33300491844983    1.29665360679293    0.02319158318481
O          -1.81194048967211    0.19897948008112    0.22011667908907
O          -0.00125660825483   -0.83261069870239   -1.07719346038278
O           0.61024044513830   -0.80615272939014    3.07674651686665
H           1.50767659360337   -0.50882324089117    3.23147004606854
O           2.41112199595049    1.80666297997162   -1.43147955476588
H           2.50969822655486    2.76017153961292   -1.40539690611191
H           1.68516684305379    1.59714249762398   -0.78347951755594
O          -2.48979595577436   -2.20659429306787    1.15841034058976
H          -2.78226965613633   -2.03564689435320    2.05582826709020
H          -2.37503285374817   -1.32970619773153    0.73872352873495
O          -0.74122585207835    1.40292894551897    2.44784894294263
H          -1.59985310808319    1.10920772017779    2.12453266728145
H           0.07257842251213    0.01168384622762    2.94647077759649
H          -0.23244045701880    1.53203973916018    1.62418017525740
O           0.17853104143710   -2.33307413485780    0.92248732573927
H           0.11048394622787   -1.45562282866742   -0.25321640563147
H           0.40819419042408   -1.81134454190624    1.72638726257525
H          -0.77371273348642   -2.54660994198547    1.02579578989119
N           0.97601124264905    0.50357480609148   -3.21054220754828
H           1.02160993608972    0.66499667707760   -4.21098150080827
H           1.05958570292036   -0.48490904012387   -2.97633697116856
H           1.70260961017849    1.04658594961241   -2.66584636060709
H           0.00031796090159    0.81802154008791   -2.74375599151097
