    26
        -50.46385734  Gyration_radius:  2.4098334559 Dipole_moment: 6.525
 S           1.27081046397388    0.67409085031284    0.75493747091153
O           0.17577541716758   -0.19592712853556    1.19921942591793
O           1.30881167691701    0.56700671838175   -0.80059862284933
O           1.06798022004065    2.04219705973931    1.14810865001934
O           2.56477590805524    0.10269817957155    1.15294473497333
O          -2.17984924235203   -0.87349764577230   -1.15424914391465
H          -1.50698515769607   -1.53746963936027   -0.96528873622433
O          -1.36873856313830    2.79942814139333    0.55170969370779
H          -1.39336240513801    3.75711351905648    0.58404750044193
H          -0.46676933738174    2.54121635352009    0.86127725700549
O           0.04939847445340   -2.43996638617806    0.01448121289068
H          -0.27225904872149   -3.08265217210879    0.64959035066708
H           0.03860180928437   -1.55604085571633    0.49355183552774
O          -0.88401672741933    1.36562069693269   -1.70751979018330
H           0.42661826521793    0.93540773670927   -1.21114252056993
H          -1.43351705291438    0.54202648033959   -1.64749409779231
H          -1.21168066821834    1.95806705867796   -1.00302135201684
O          -2.47564099695796    0.29417848709887    1.25149472714555
H          -2.48598032935676    1.24766719369935    1.10179748454389
H          -2.47792407025127   -0.53572563103122   -0.27984901487929
H          -1.54072376206686    0.09317897421893    1.43381566345719
N           2.58223860402290   -1.77954548810067   -0.50386149180291
H           3.34716122386560   -2.44571870029857   -0.47108327284862
H           2.56097915577905   -1.26948138672104   -1.38518943719249
H           1.64374497287120   -2.23247349193826   -0.36103813692111
H           2.66055116993392   -0.97139892375510    0.29335963016522
