    26
        -50.46066634  Gyration_radius:  2.40223180053 Dipole_moment: 5.231
 S          -0.03825774844993    0.94486061779767   -1.41390438943085
O          -0.74278274221219    0.78107113744044   -2.67745460234837
O           0.68445974510516    2.17550314650101   -1.23976819240544
O          -1.18171540729760    0.88232466385810   -0.33584514688448
O           0.80703847880766   -0.23728997942099   -1.14513251027317
O          -0.09318121792998   -1.16288169468870    2.28669748369500
H          -0.62760092782597   -1.57690003463606    1.60025461695605
O           2.04369190436536    2.15854194459519    0.99809186423816
H           1.61381635341658    2.16875000648265    0.10775383778514
H           2.43267530858397    3.02738943502619    1.11045368540209
O          -2.13622457069187   -1.56335859746733    0.12028827274160
H          -2.95453807672857   -1.53874039575989    0.61910924672306
H          -1.85350939147035   -0.62832191655704    0.00765087103088
O          -0.38110592124747    1.44351385348712    1.96035137975441
H           0.53437698527244    1.75621277970806    1.81507486255211
H          -0.85885916187676    1.20587590908720    0.61042250712215
H          -0.30731822820016    0.50756664091912    2.27911954113504
O           2.24119472836075   -0.66557021158747    1.07987012641861
H           1.83338264162472   -0.58327350869305    0.19805752265052
H           2.49693930173662    0.23733481474531    1.30539849595429
H           0.82916963715377   -1.13725207684094    1.94220065846435
N          -0.89587826643353   -1.69992632307607   -2.27325727696843
H          -1.58721776926230   -1.94764102527482   -1.54755032875103
H           0.00254200150435   -1.41275804979054   -1.76464692801284
H          -0.77464592568271   -2.42154510985805   -2.97487288748206
H          -1.08645171049621   -0.71348604601677   -2.66836271001255
