    26
        -50.45437390  Gyration_radius:  2.57013980803 Dipole_moment: 1.871
 S           0.02832027754856   -0.81385458389752   -0.90303524934971
O          -0.52501594175310   -1.52380358943933   -2.13492465330708
O           0.73512605109371    0.39232958158264   -1.32103072899754
O          -1.13910292517859   -0.43289635646949   -0.05536440752575
O           0.88618997245727   -1.72850444610557   -0.17499091890245
O           0.71890702320396   -0.74430096662025    3.55259893372073
H           1.13567798492921   -0.31971859653765    4.30478897459431
O           1.73990421736083    1.46879490214417    0.80307129136107
H           2.31378844618372    0.75149811177818    1.11840311897255
H           1.44497673299516    1.17926375560973   -0.10135402849499
O          -3.18109656776396    0.83065335250458   -1.26392741257085
H          -3.96701002219213    0.31649412549670   -1.07314143911525
H          -2.45393095048583    0.39514980150025   -0.77559021574197
O          -0.42928968133593    0.87592145570947    1.90256848332043
H          -0.81651508683399    0.29961104866667    1.07372507234613
H          -0.13100309583583    0.21326208717950    2.60771499540484
H           0.46709496817494    1.26866694178797    1.50024172127114
O           2.55425232968813   -1.03432595526549    1.63388743346946
H           3.27424319714167   -1.66634197241503    1.60896203575818
H           1.91962347250482   -1.32979865891881    0.91740612848631
H           1.43650841328694   -0.98167175704480    2.92211295507257
N          -1.24340107579216    0.58084914298401   -3.31647340673765
H          -0.46443197272927    1.11875525812393   -2.95255359895468
H          -0.87163693760932   -0.72142190337701   -2.73153119860416
H          -2.09150743173596    0.87181180099162   -2.83098488043946
H          -1.34067142720115    0.73357740993769   -4.31057900504646
