    26
        -50.46954185  Gyration_radius:  2.3986643344 Dipole_moment: 4.982
 S           1.46329016998606    0.30224976936595    0.54696496548343
O           2.87316343398492    0.11214007415839    0.34506912752204
O           0.87006530193554    1.13882781668442   -0.51749993468619
O           0.73484985855005   -0.96410481726451    0.65139510133295
O           1.21778216969028    1.08860945073218    1.87239057900913
O          -2.65961735480958    0.59813822362414    0.70367471600876
H          -3.56057734663888    0.90222197620898    0.82061139866288
O           2.51693507368504   -1.83371553253289   -1.39956717369570
H           2.81742579882769   -1.10697971508950   -0.80565579204266
H           2.18233138855237   -2.50576734406142   -0.79951150829379
O          -1.44188907217454   -1.43620461850905   -0.78932669608196
H          -0.67544847870454   -1.42006170090053   -0.17759611800834
H          -2.04712547704869   -0.77216365977520   -0.42378292924270
O          -0.87325806134483   -0.24876897176097    2.63114919541065
H          -1.63471100875938    0.01707123924599    2.08316073162762
H          -0.41497434243935   -0.92705681073814    2.10986954485534
H           0.41830737923510    0.67101178245356    2.29783841510785
O          -0.99162051061126    2.63589621781120    0.55617049064649
H          -0.26651371895720    2.17298206915598    0.07824046088201
H          -2.10041623899331    1.40865475588361    0.59039034314943
H          -0.60960694166206    2.89729654016223    1.39738722116179
N           0.42647106236349   -0.55023157987247   -2.40495264411347
H           0.60441864735142    0.29385361038474   -1.77883643515542
H           0.34964391357056   -0.31065176984757   -3.38670431281923
H           1.25179203140462   -1.17855171014437   -2.19866931520089
H          -0.45071768699344   -0.98469527537397   -2.00220945151721
