    26
        -50.45437401  Gyration_radius:  2.57043190371 Dipole_moment: 1.871
 S           0.73052516142482   -0.58830452282715   -0.77145695070368
O           1.71610783431031   -0.88621467692906    0.24964316898525
O           1.04178661908102   -1.41029183030112   -2.01855977717964
O          -0.62427810283733   -1.00064905866102   -0.30163777309653
O           0.70924354489968    0.82781757520834   -1.12241900469770
O           0.00838571829479   -0.41737702508152    3.67528118983397
H          -0.11554899441434    0.11973003543235    4.46006612368609
O           0.30054253984678    2.15038682725408    1.06059809631245
H           1.06686256011752    1.87498312425257    1.58981877959894
H           0.48278273676495    1.80113747950784    0.14759124429214
O          -2.59650494447403   -1.07821270387022   -2.12662557223226
H          -2.96136006301746   -1.96373800040617   -2.09189689342321
H          -1.91869117184035   -1.04236656407889   -1.42217054786341
O           2.12419525839410    0.52197058576401    2.34400996471486
H           1.99454111697073   -0.03775299494067    1.52343606813940
H           0.87329146829403   -0.15857130576457    3.28294963638379
H           3.04884334756164    0.42046215876926    2.57448105674393
O          -1.34983263117313    0.35290328195486    1.61976472624484
H          -0.93493340889922   -0.06174362379711    2.44550124705610
H          -0.76615556077198    1.21276932517958    1.42289114412746
H          -1.09771309991219   -0.28809432525602    0.78636531966825
N          -0.39076880157695   -0.03563182159075   -3.56758107294526
H          -1.34682499835241   -0.31771043453273   -3.35300121905750
H          -0.28100147449818    0.09517265138389   -4.56352095410488
H          -0.19246305071766    0.82857743770966   -3.07526080881874
H           0.47896835635449   -0.91925158445165   -2.76826721169923
