    26
        -50.45437397  Gyration_radius:  2.57026859458 Dipole_moment: 1.872
 S          -0.36301666419542    0.50655232279075   -1.04348989116934
O          -1.22600622464840    0.60958762478290   -2.29747145590457
O          -1.21560167323674   -0.08725363642200    0.02749385710273
O           0.76533638640958   -0.37981373789877   -1.30870281974305
O           0.06304000151252    1.83602749824651   -0.65160543325797
O           0.51468322416285    1.82090601017098    3.17882839356495
H           1.10833598606281    1.79840482665420    3.93172382689527
O           2.23693064426953   -0.40476024624571    0.81614688603887
H           1.80212314300955   -0.48996273316906   -0.07402075191598
H           2.46912906411969    0.53538010255996    0.89009034521219
O          -2.59393299544511   -2.31405435344779   -0.58063419375693
H          -3.51304854055481   -2.12327538934957   -0.38751302564031
H          -2.09410482438785   -1.51989366612458   -0.30435153310083
O           1.95747529226267    2.33629933074360    0.99092065631753
H           1.03244449906548    2.16123782969260    2.41404217956908
H           1.22226172362131    2.16672809531935    0.33208075257959
H           2.33995380074711    3.17571842927455    0.73099607585754
O           0.07876608395708   -0.47556716455907    2.08270828334993
H           1.03541824638189   -0.56396617038684    1.63987279449946
H           0.10365837591975    0.40292077719185    2.58584790105000
H          -0.55710860982617   -0.32613711058199    1.22115117974359
N          -1.04796509903178   -1.82782702742465   -2.90479171752509
H          -0.09770578505455   -1.90260066179401   -2.55837281705791
H          -1.12074934683809   -2.24711114054385   -3.82128558649490
H          -1.66872061452504   -2.30277521065341   -2.24999294507301
H          -1.23159612365931   -0.38476459880486   -2.65967097113880
