    26
        -50.45437392  Gyration_radius:  2.57019361415 Dipole_moment: 1.871
 S          -0.57127129941549    0.50493533112152   -0.94686712938766
O          -1.07684654904007   -0.57031653201090   -0.04422051068730
O          -1.44413243503177    0.48667410298989   -2.19810270010664
O          -0.70289422496060    1.79426763381391   -0.29662687223079
O           0.80868199144107    0.21221918118732   -1.31996357050263
O          -0.15466127289100    1.24184737101161    3.48140717838512
H           0.42308300618357    1.31837347800400    4.24306241985762
O           2.23652926345018    0.38046104237747    0.82801950176894
H           2.07326075548622    1.30257885344974    1.08553227196212
H           1.84309316866364    0.29692519562151   -0.08135158466393
O          -1.46056431846596   -3.00559113151591   -1.11643445569482
H          -1.31432862753031   -2.14453442869876   -0.67584523205636
H          -2.37019564676458   -3.24236060334380   -0.92937250619782
O           0.88458555482081    2.69301572437922    1.49455042189622
H           0.15652038456666    1.89811875938490    2.81709807951914
H           0.25785399712981    2.37016948734888    0.78290143998779
H           0.88834008436932    3.64784589419463    1.41241799499765
O           0.33275389436255   -0.78608047845650    1.95990194077159
H           0.01928772167046   -0.08292333008311    2.61781760800112
H          -0.33812676532013   -0.74500453874043    1.11299057341806
H           1.22885242970556   -0.39867177016087    1.55232802598253
N          -0.32135814290341   -1.51281077033211   -3.23876991185326
H          -0.67584998565165   -2.31063726393892   -2.71204003155608
H           0.59028529131151   -1.26416771553044   -2.87045008934684
H          -0.25151179621828   -1.74547190686926   -4.21959630579518
H          -1.06138650896542   -0.33886160518148   -2.73838654647536
