    26
        -50.45444099  Gyration_radius:  2.55403125983 Dipole_moment: 4.668
 S          -0.91830781687094   -0.22629218584497   -1.05894791148385
O          -1.74606527165399   -0.94149902206460   -2.13453933566213
O           0.20428419616716    0.42416049214428   -1.67211642211589
O          -1.77130058789076    0.65487017011682   -0.29294691421055
O          -0.45717493500688   -1.37578212837296   -0.16845350086935
O           1.46723039591037    1.92481735706432    1.36428051267533
H           1.59037721849505    2.54037305226928    2.08829714432746
O           2.75130428945120    0.46033535501377   -0.67066688831381
H           2.57036510333498    1.10647239972400    0.02630537543256
H           1.92746563274680    0.40227188881486   -1.18256368747449
O           2.91373196580490   -1.74591734536570    0.80413830076874
H           3.02327187223823   -0.96566854244445    0.20804318910997
H           2.64983322165434   -2.47529866774183    0.24112440228881
O          -0.27175272590940    2.86116627990498   -0.37239471716580
H           0.14094046949698    2.62487916782673   -1.20967844097779
H          -0.97559575319244    2.19444796225615   -0.25872348727347
H           0.80852919835411    2.34109837557624    0.74745264791048
O           0.77230495703934   -0.63978696839757    1.84355970783702
H           1.62279161341042   -1.11820881453637    1.64915751654964
H           0.98451017268074    0.31378565751384    1.73493348060786
H           0.03509078751648   -1.04499673766194    0.73906788470991
N          -3.57240319786352   -1.52322395551180   -0.43193526577874
H          -3.31666050784171   -0.65758998142475    0.03529554247203
H          -3.30482785020122   -2.29960208452261    0.15838526999484
H          -4.57351434785224   -1.54662601282393   -0.57436802252666
H          -2.55442810000034   -1.28818571152416   -1.61270637083540
