    26
        -50.45444101  Gyration_radius:  2.55365519461 Dipole_moment: 4.688
 S           0.73686616288226   -0.24566576825685    1.18614348529715
O           1.42551159717241   -0.25770792843551   -0.17469981999605
O           1.91117148475771   -0.39231477503936    2.16227724227607
O           0.07994400260375    1.00990208586555    1.41256761866548
O          -0.13023041303643   -1.39824993947327    1.28974395931077
O          -2.52206609527042    0.51015856952779   -1.04891841045618
H          -3.34211036937882    0.22810941972612   -1.45674925050836
O          -0.81615460661633    2.69585078559226   -0.54859413703327
H          -0.42584351077956    2.24701338567272    0.21975909493802
H          -1.59054578469638    2.16595618004419   -0.78417482262139
O           0.73834855497486    2.16125079978650   -2.63833190922473
H           0.17541571075827    2.53207394642690   -1.91599814048008
H           1.64429777642247    2.23785327138343   -2.33480200112090
O          -0.14477066588059   -0.24648286345097   -2.08120755267819
H          -1.04028886622382   -0.04037422425278   -1.73230950843904
H           0.17361626267689    0.60089328580384   -2.49442185884547
H           0.73179532903921   -0.30668306727284   -1.00660030365581
O          -2.47419842804294   -0.14007556291354    1.49908543480236
H          -2.08671039932354    0.64719624508336    1.89567847773487
H          -2.57375588241193    0.24114458117300   -0.09362271183178
H          -1.73865800422347   -0.78150234155609    1.47836991807095
N           2.31618922099671   -2.81164630846131    1.41756773745282
H           2.79879022635435   -2.86104314075347    0.53017964146108
H           2.24416335788368   -1.34315704912773    1.98461303815815
H           1.31538470036212   -2.85380949052029    1.24550619760743
H           2.59383861901024   -3.59869012658345    1.98893856112171
