    26
        -50.45974648  Gyration_radius:  2.50420937883 Dipole_moment: 6.039
 S          -0.87548829666339    0.16484746391317   -0.46066845599310
O          -1.90326321434396   -0.70057817850584   -1.03218869284264
O          -0.46265305160747    1.19108191883567   -1.42473850136994
O          -1.47619384625271    0.81960402243368    0.78132291030819
O           0.29660716506640   -0.62452848562749   -0.04919838757207
O           0.86991309459502    0.26855985674909    3.68645387511149
H           0.52699530489187    0.30687952380355    4.58040088924467
O           1.82161102334152    1.72019533525264   -0.13086592639365
H           1.98281328042696    0.78977066881935    0.05945977433847
H           1.05702136025618    1.71307298585112   -0.73603938813699
O           1.13471063461887   -1.91642193488255   -2.17777667509838
H           0.91794378649471   -1.43849313929539   -1.33966640336549
H           1.13270452103572   -2.84841138958618   -1.95179560384581
O           0.23717768505959    2.19521897025449    1.95065412869053
H           0.94959818979441    2.21029130680868    1.26878609887112
H          -0.78458167048947    1.45875562471295    1.28097174481445
H           0.54764440219069    1.57673698304378    2.65406337738363
O          -0.63694565504459   -1.47131454712894    2.29376959025718
H          -1.50308215060532   -1.06039855945361    2.22386039543991
H          -0.21394254968809   -1.30195871185808    1.42913758139159
H           0.38864876698523   -0.46112242501063    3.23402290707288
N          -0.80779620300632   -0.52917343077814   -3.29938433469013
H           0.01285850135168   -1.16998767292112   -3.15408184121129
H          -1.50662773638282   -0.78589488607606   -2.52036741185428
H          -0.53008675128597    0.41095442266513   -2.92186341074919
H          -1.17558658064552   -0.51768575210615   -4.24426822983159
