    26
        -50.45974643  Gyration_radius:  2.50415869049 Dipole_moment: 6.038
 S          -0.84588884812354    0.32334895521605   -0.43004473338942
O          -2.05156006106119   -0.33487729229826   -0.92528878552680
O          -0.28383048321013    1.21718270059795   -1.44894482349099
O          -1.24446721037244    1.12147194292844    0.80934450676432
O           0.16411519713531   -0.67240128751351   -0.03706554534953
O           1.08232915546182    0.19626468594544    3.63401263525969
H           0.79658094135556    0.32969517619089    4.53886719370164
O           2.11928117430021    1.31667691008831   -0.27160136285659
H           2.10318434436289    0.37881191412698   -0.05255867898224
H           1.33994327174671    1.44377882921433   -0.84385286806491
O           0.62429032725217   -2.16809022113873   -2.14731622721017
H           0.54775053390513   -1.63194302073731   -1.31993844533335
H           0.44758142620580   -3.07363680595766   -1.88567406340863
O           0.76241038503074    2.15912447670033    1.85362742410241
H           0.97726994715117    1.51156610141431    2.56651538991667
H           1.42995023792365    2.01140554267962    1.14272032175532
H          -0.41630971726567    1.62340991726542    1.25531931543276
O          -0.80639354288704   -1.24590339706520    2.37285019092435
H          -1.57572078491143   -0.67178994329393    2.32288200473127
H          -0.39998979598769   -1.19034890991629    1.48575384179859
H           0.44418554904285   -0.43501846344177    3.23028550259068
N          -1.05481103084045   -0.45318106650351   -3.24061458344608
H          -0.57745362103170    0.42293450985745   -2.91249050443108
H          -1.75179615228038   -0.54099698924787   -2.42319620591757
H          -1.45861225864820   -0.39657858611331   -4.16900106739709
H          -0.37203900422763   -1.24090568899593   -3.10459042219147
