    26
        -50.45444087  Gyration_radius:  2.55363702535 Dipole_moment: 4.674
 S          -0.04268162800226   -0.46711770951546   -1.33951796429370
O           0.31416829647864   -0.67396604202607   -2.81709856186388
O           0.43567280659832   -1.58024399606599   -0.57057640827921
O           0.72058046991907    0.80438861488804   -0.98290289198986
O          -1.46177154350702   -0.22125594185856   -1.21053083024506
O          -0.89289542249554   -0.44273243539147    2.59301383988359
H          -1.50073685233539   -0.28439852129546    3.31671777687801
O           2.75208269457644    1.00918345054624    1.89109124207897
H           3.28711971828365    1.07465867439860    1.09852379935484
H           2.49506933173988    0.05844043177881    1.97012757648358
O           1.65311303724520   -1.41153084490242    1.87493545520150
H           0.84433494803814   -1.22505336902101    2.37202908789750
H           1.35784685469231   -1.58255074636118    0.96514092971256
O           0.26938274392738    1.62444901337037    1.30278970931652
H           1.20465650131924    1.57096223038998    1.63824998327074
H           0.47854221910042    1.18917537776347    0.00170080072463
H          -0.21644029196849    0.91925513025261    1.78541346623324
O          -2.01013684834470   -1.94812478606189    0.74858800834234
H          -2.03322638316499   -1.30171629421530    0.01745925896238
H          -1.28822126945375   -2.54063265842772    0.51418658805747
H          -1.37311316837422   -1.01862934372231    1.94074423327233
N          -1.04441116887449    1.39055997827785   -3.49825867052177
H          -1.64940583155975    1.16776070958277   -2.71252730950056
H          -1.60538436100609    1.52433827897710   -4.32913421498115
H          -0.55094540458238    2.24886417363959   -3.29159935136269
H          -0.14319943830891    0.11591664503963   -3.27856555266542
