    26
        -50.45444090  Gyration_radius:  2.55359714368 Dipole_moment: 4.674
 S          -0.57248461086546   -0.18204479518681   -1.28604629483655
O          -1.49920786542505    0.83479654064199   -0.84095525069828
O          -1.11612750415053   -0.85952885661096   -2.55047955401813
O           0.75681111024588    0.29843000992413   -1.53366060155099
O          -0.55536244872189   -1.32234664867746   -0.27316104163691
O           1.21049493995739    1.82075405445241    1.71383244005714
H           1.18063314677609    2.45893150285526    2.42806479210797
O           2.86083564982153    0.10620720695252    0.20615901641247
H           2.23162628551375    0.11218330345717   -0.53425940275933
H           2.55857392540578    0.80750872395466    0.80009449675740
O           2.28399778505914   -2.01754465727256    1.69759309532587
H           2.66847718430483   -1.28958378778494    1.15125488163954
H           2.11191832752117   -2.74095363353699    1.09281873361166
O           0.22006403553111    2.84629964492170   -0.49603667176512
H           0.83565450407997    2.51660569879298   -1.15902351470046
H          -0.56307767765659    2.27172873012520   -0.59333029892904
H           0.83055860897634    2.27257424734329    0.91431304791091
O           0.08617528960249   -0.61636159163217    2.00509019516581
H          -0.32481177327059   -0.99779559645481    0.73560907914124
H           0.88813833922273   -1.19897788454221    2.09193417062790
H           0.43969526440308    0.29909934216765    1.94850221602697
N          -3.43238276708861   -1.12806431112039   -1.48554269557483
H          -4.33789785495726   -1.04954791129385   -1.92911937774280
H          -3.22558835494263   -0.26976361708148   -0.98204305574967
H          -3.45431261275161   -1.89254647046396   -0.82378657999563
H          -2.08240094660200   -1.08005923391498   -2.29782184481210
