    26
        -50.45444086  Gyration_radius:  2.55362013913 Dipole_moment: 4.674
 S           1.26939678004576   -0.32733048529962    0.54411217863689
O           0.32357764299240   -0.67890316539178    1.56438615588270
O           2.66370109368136   -0.18023106895328    1.16671542687281
O           1.32481965828076   -1.25769493672057   -0.56142134210988
O           0.99026555063169    1.07281867126072    0.00728372531307
O          -2.51672118459777   -0.97961962829831   -0.65158411597789
H          -3.14617119307774   -1.34684265410505   -1.27386823825240
O          -2.03841016530102    2.74970646498148    0.67167620772932
H          -1.30561366250778    3.20485838424875    1.08948251488993
H          -2.20478699342094    1.94181577858780    1.21559521053926
O          -2.19964279375544    0.35270910668899    1.81032030709058
H          -2.58048919264912   -0.14951358549086    1.07635062974324
H          -1.29107668120399    0.02026048604961    1.90061249358972
O          -0.76006892062912   -2.79511724405599    0.07965429249324
H           0.04260797194339   -2.39472189792903   -0.30543208517006
H          -0.67850764531823   -2.62123902762620    1.02320669815426
H          -1.89166188154471   -1.71484374431024   -0.41396053253224
O          -1.11650913528165    1.24417342233587   -1.27048240310447
H           0.09173893075250    1.13030616956678   -0.59715367383316
H          -1.62654029799135    0.41694037770931   -1.12279758450413
H          -1.55447216524026    1.92536909563155   -0.69229924139584
N           3.73336062855742    0.10762343597856   -1.14513189181990
H           2.99620008646268   -0.50277929011633   -1.48723670517229
H           3.58063149066522    1.03615841003183   -1.51580572296289
H           3.26444130681880   -0.02129444299324    0.35436874932796
H           4.62993077177874   -0.23260865178447   -1.46659104342239
