    26
        -50.45028640  Gyration_radius:  2.6409471672 Dipole_moment: 5.324
 S           0.08949247672808   -1.46187189152634   -0.58299743771253
O          -0.52191603376724   -1.50144284034186    0.70631763690730
O           1.55937111905101   -1.03879432554020   -0.49759188382175
O          -0.57746215166795   -0.59932617755202   -1.54024513150540
O           0.18349081942505   -2.87926764827028   -1.16096010562169
H           0.58960749358738   -2.72664808685571   -2.08490433450620
H          -0.86805310554158    0.93528042496461   -0.99720813970626
O          -0.86080178591527    1.86534948168813   -0.67551029988261
H          -1.31134196886443    2.38905388825702   -1.34017039887911
O           1.05681029934559    1.44774189642283    2.77083426964100
H           1.36907328522798    2.20763207743475    3.26418648428538
O          -2.49426731207152   -0.55508435507795    2.28838106163027
H          -2.30878058611256   -0.97130419137121    3.13227759504789
H          -1.85242677308577   -0.93663588396628    1.66305139875885
O           1.67917748617387    1.34226379362496    0.22341235196171
H           1.56391399614409    1.33360373592123    1.21257198149352
H           1.66506778871780   -0.03447874784141   -0.17450755684647
H           0.84853101286921    1.71361951093431   -0.12446579095363
O          -1.43723122765912    1.92492678812720    2.08056656471539
H          -1.34345763644782    2.00203563282032    1.11980342077769
H          -1.93631185686682    1.09413399351062    2.22096394156447
H           0.08885223838101    1.60591822564533    2.60470401978266
N           1.13991036566524   -1.97555061801364   -3.36304146443139
H           2.09724660224311   -1.68956009428420   -3.20605786324544
H           0.53582007357956   -1.17052668588375   -3.23057184718195
H           1.04568539086075   -2.32106791281556   -4.30883848226509
