    26
        -50.46742647  Gyration_radius:  2.40199160492 Dipole_moment: 4.780
 S          -0.38579180583857    0.01233875545013   -1.67685942497334
O           0.78650508657207    0.66528189349392   -1.09431767093073
O          -1.40361650482334   -0.21732136938849   -0.49528475251059
O          -0.06249380392022   -1.26686403671463   -2.26023073097121
O          -1.12250708188625    0.92817385802479   -2.54433620195474
H          -1.72932378819113    1.78515172180887   -1.56036529431340
H           0.83658287863909   -2.18507544253224   -1.29098863664378
O           1.30517293843265   -2.73992037810278   -0.61304334073676
H           1.40023881878766   -3.60761824918175   -1.00874929420399
O           0.79997606951774    0.05306554772413    2.44512531702758
H           1.23609207308753    0.13106167335205    3.29422264925019
O          -0.04576127488565    2.17381022047748    0.84191879928658
H           0.41850991830218    1.72059079560595    0.09627967760138
H           0.03176935796060    1.53619475483730    1.57201960415170
O           2.50740657520535   -0.52122450521343    0.54361271461182
H           1.52120336788205   -0.12379929444594    1.77649183989139
H           2.38124835634616   -1.43730062277696    0.25799956757247
H           2.04673715313038    0.00210005333339   -0.14333035357289
O          -0.56888535621324   -1.95926328046375    1.18743685111156
H           0.14287785516723   -2.38843702221990    0.67458056975684
H          -0.13806685599774   -1.33386359050361    1.79800494856657
H          -1.11358172573380   -0.95208416453189    0.13332077126166
N          -2.14293640239537    2.33231115547494   -0.69232632090033
H          -2.41753706407680    3.27796613162824   -0.93914390243296
H          -1.35259917854256    2.32198506502984    0.04411726295511
H          -2.93121958652412    1.79274032983388   -0.34615466888896
