    26
        -50.46596331  Gyration_radius:  2.52204041776 Dipole_moment: 2.168
 S           1.52077430395130   -0.97652085417092   -1.18564411428214
O           0.41736829802930   -0.19485560005465   -1.71297089579519
O           1.06234800889730   -1.97700700389149   -0.22427972531303
O           2.62876358352693   -0.19268103738224   -0.69131417639361
O           2.07988220152206   -1.79681980695451   -2.42698332558666
H           2.95776635123382   -2.03934723451188   -2.15009668376356
H           2.25403235632784    0.94733828213740    0.41311262475241
O           1.92651972517011    1.58425187835032    1.09305389146977
H           2.70345733756568    2.00340446045990    1.46627358037778
O          -2.47590232262933    1.93885597875585    0.38897455021270
H          -2.65157060153198    2.72908881081582    0.90044282616510
O          -2.26321630210728   -0.49468542372632    1.42278802018869
H          -1.92935987719311   -1.20238918154460    0.19561128799348
H          -2.44178763218961    0.42502371947412    1.11646132354826
O           0.34285438746865   -0.51187447002914    1.97524630527592
H          -1.36505593069257   -0.47110238954274    1.82767386256803
H           0.69489093825013   -1.12360097639885    1.30796905547152
H           0.83334732978775    0.31601051286401    1.85506125363700
O          -0.07672490299418    2.27318143925115   -0.68738037318310
H           0.09656482674314    1.47498867113388   -1.21448338247814
H          -1.60995453500183    2.09257417617474   -0.06463459972643
H           0.59115885736098    2.25368528894199    0.01564053244417
N          -1.48084928628704   -1.67612078296003   -0.70519246988478
H          -1.09672872435273   -0.93510965004983   -1.32411625752958
H          -2.11909156575346   -2.29787569801116   -1.18809488985681
H          -0.59948685433965   -2.14841312933735   -0.40311820033053
