    26
        -50.46596252  Gyration_radius:  2.52201591161 Dipole_moment: 2.186
 S          -0.72385498390410    0.09342628433318   -2.03423438990473
O          -1.23303644703592   -0.79049894453034   -1.00190149818708
O           0.73264353717566    0.02535137363975   -2.13319864083763
O          -1.21578358880367    1.44931704796853   -1.95945182846880
O          -1.27529271700202   -0.50229953024778   -3.40078954712258
H          -1.19039751191814    0.22788781064266   -4.00561698885840
H          -1.02192115008620    2.19883430586358   -0.52361379050429
O          -0.82969304488716    2.56853944541543    0.37162907606519
H          -1.07131012214498    3.49542157202745    0.33805893286107
O          -0.13867956881963   -0.97264522015048    3.01375891323368
H          -0.20926909505594   -0.54157856073119    3.86592457478311
O           2.04701411837769   -0.95440635513316    1.51065539378253
H           1.50794353645679   -1.67278911968761    0.36502168804941
H           1.31246939191532   -0.98291515919019    2.16730849214471
O           1.61455240715701    1.28444859188764    0.13324310212921
H           1.40804088392575    0.94830949512640   -0.75433565067441
H           0.85475639883696    1.82986456607734    0.38948398757545
H           2.03218576240295   -0.04413469985390    1.13337350498139
O          -1.88453378548705    0.23802959391014    1.42832676687513
H          -1.58710478727979    1.14666805676811    1.26578009284879
H          -1.81698975184863   -0.20231597161371    0.56434746899461
H          -0.83602356794126   -0.56518544966935    2.44197322236614
N           1.01865224946677   -2.03603267283051   -0.56519163456691
H           1.24508696088019   -1.35415276194306   -1.32343729220127
H          -0.00819097177673   -1.89770789887392   -0.48620857199636
H           1.26873582738921   -2.98943578921217   -0.80090535336512
