    26
        -50.46742646  Gyration_radius:  2.40197960131 Dipole_moment: 4.774
 S           1.05788221992572   -0.66322167523652    1.18332325057108
O           0.71232329991344   -1.30651135394110   -0.21360980805446
O          -0.00751074880372    0.29603574145480    1.47402589278967
O           2.35045823402362   -0.02942316165535    1.09055876120134
O           0.98834953819132   -1.81571205694081    2.07837574059449
H          -0.16201406751440   -2.49193738454734    1.54164118609677
H           2.33259616871052    1.29198277199003    0.17165570212171
O          -1.63923825352641    1.16093987295353   -1.60818022431111
H          -2.28371156707381    1.68935354585394   -2.08013429693962
O           2.27977476750592    2.03851752548140   -0.48176761925787
H           3.17821515213303    2.35496548695815   -0.58741859977493
O          -2.19535566298335   -0.64090670414666    0.44784158781394
H          -2.14465727304077   -0.21746851104533   -0.42603812779897
H          -1.47812708522424   -0.19194901208291    0.95861968773925
O           0.92873978957386    0.36856951475597   -2.13979286692908
H           0.86291792113289   -0.67193596313035   -0.98423871523331
H          -0.00112272522442    0.65978356377573   -2.14521112944336
H           1.44426851092460    1.07947478477917   -1.71231116409150
O          -0.35983115872754    2.58721368054895    0.17792262908860
H          -1.23017485742120    1.76482518232649   -0.92518010635587
H          -0.27902863528404    1.85816302903358    0.82585287859691
H           0.55035878157501    2.73574152013574   -0.11568991611141
N          -1.03608559124758   -2.90495738560382    1.00300047863696
H          -1.60556598138911   -2.04023409188584    0.69520662289882
H          -1.58128083123478   -3.52702481447918    1.59156645026722
H          -0.68217991490131   -3.38428411536785    0.17998168580938
