    26
        -50.46742639  Gyration_radius:  2.40244305925 Dipole_moment: 4.776
 S          -0.88019188109331   -0.38296816470318   -1.42916805097862
O          -1.41413797809243   -0.49230813766293   -0.07173516313542
O           0.68997510167982   -0.36080376254240   -1.29217259058795
O          -1.30205570245103    0.83140296326293   -2.08372330942049
O          -1.10575771676903   -1.61265132178996   -2.18494589520430
H          -0.14080948617574   -2.47897475856947   -1.56394920486237
H          -1.12321263016784    2.13293758012442   -1.15303673756041
O          -0.89864876698963    2.90625464063513   -0.57125600584107
H          -1.09418147866557    3.68731410251218   -1.09106928181821
O           1.10521428669761    0.57892471391489    2.25415259442295
H           1.36791265155103    0.78271401062773    3.15233365120639
O           0.25904049261267   -1.90750388130868    1.31242112815464
H           0.80985037385127   -1.18785446930528    1.66485527302845
H          -0.50743780621170   -1.42981851104550    0.91100338287863
O           1.53740243540734    1.78021608731991   -0.16939680049274
H           1.54959221716651    1.43905738214838    0.74327448802441
H           1.03615850766105    0.50863292652654   -0.91351358098572
H           0.75104002485777    2.35444761976814   -0.24533941948266
O          -1.31688178938823    1.43911190236537    1.74846515426939
H          -1.54716505333750    0.69613782938651    1.15445378463931
H           0.16378652896269    0.90014347292954    2.15926065632748
H          -1.27444148548812    2.20265699305887    1.15532268733309
N           0.65841736002197   -3.01011756452185   -1.01231233597100
H           0.60988353331100   -2.61710512523411   -0.00758719947170
H           1.54300605416344   -2.74376215148695   -1.43511723175439
H           0.52364222694459   -4.01608437653479   -1.03121999282297
