    26
        -50.46742651  Gyration_radius:  2.40221112769 Dipole_moment: 4.780
 S          -1.14547160388777   -0.77933277231353   -1.02182740561896
O          -1.25499617093108   -0.69912974518052    0.43462845941426
O           0.36563687528128   -0.50039283480909   -1.37326549573765
O          -1.96142244066904    0.20884647045014   -1.68416471079840
O          -1.32161370883455   -2.15222240862803   -1.48908191592753
H          -0.07159241147445   -2.72982822022007   -1.07421805868088
H          -1.79429285648827    1.67909545152900   -1.04979525043908
O          -1.57575940143769    2.57556367999775   -0.68163690799972
H          -2.05653485521466    3.20285552949263   -1.22372143009170
O           1.54429558594291    1.16123608652053    1.70227014090050
H           1.99742048733795    1.56598795305007    2.44251127171874
O           0.97880140032548   -1.55648640258877    1.43128461082870
H           1.45136387612226   -0.70869974083878    1.49096054013279
H           0.05282889867615   -1.28450427163441    1.21833186093573
O           1.04937814063651    1.91955365464448   -0.88366787513315
H           0.62372474132945    0.46746349526087   -1.24794702288128
H           0.17506836996054    2.34631730548392   -0.79785805225443
H           1.37906163076608    1.76881851583350    0.02074407396153
O          -1.04349515846323    1.54413295048922    1.84029919609037
H          -1.27722524054468    0.67394560395600    1.45811440953712
H           0.56899262034731    1.31758031544685    1.85302647303838
H          -1.31686848348937    2.17509072872536    1.15930593658170
N           0.93725042120634   -3.01860398382762   -0.72253294725151
H           1.00675401426249   -4.01791050378426   -0.55767832472553
H           1.08831166246208   -2.45017371322602    0.18338344937761
H           1.60038362676556   -2.70920314387985   -1.42746501481116
