    26
        -50.47250318  Gyration_radius:  2.48727030637 Dipole_moment: 2.884
 S          -1.61266221698265   -1.40533828920566   -0.75410437024592
O          -0.70220668686987   -1.50817246957219    0.37025181416932
O          -0.90248756591250   -1.28127734472091   -2.02128580009799
O          -2.61852818121532   -0.37328780508177   -0.59083736754482
O          -2.39722984712341   -2.78029338536680   -0.81259787741214
H          -3.06202507372037   -2.58342213024098   -1.46351450840032
H          -1.98792278429900    1.06006505463210   -0.29687388604096
O           1.76573719661345    0.90645855925604    1.91090134741374
H           2.14999642447358    1.21571461114116    2.73139144258053
O          -1.58079245168694    1.93224462835697   -0.05225262916851
H          -2.20899419948781    2.60235880697182   -0.32547206911215
O           1.98477368933595   -1.52431470814318    0.63025486856432
H           1.03863982777916   -1.75530568582470    0.67817749879336
H           2.07654825985437   -0.73399627593749    1.19336025626591
O          -0.78707251740153    0.46086570647015    2.17401869565994
H           0.79618712347987    0.73986386247077    2.09729196965945
H          -1.19591791924712    1.14897477880585    1.62877171961232
H          -0.85754631364744   -0.35176025962437    1.63381252376252
O           1.10994008232041    2.02066150146042   -0.52113360392032
H           0.14292623151787    2.08201016276996   -0.40413781584302
H           1.46009444636380    1.78415956583879    0.35670202140417
H           1.37807842914945    0.67462303176942   -1.33532602585740
N           1.49753538849752   -0.33005875357383   -1.65948463324792
H           1.85845743231942   -0.88076969063818   -0.82283221810039
H           2.11640045106762   -0.39721824788685   -2.45907124238357
H           0.53807074482126   -0.72278523412641   -1.88601012051055
