    26
        -50.47250315  Gyration_radius:  2.48733133544 Dipole_moment: 2.881
 S          -1.73158567926941    1.46033340803712   -0.11372633194787
O          -2.30402971148883    0.46436445973621   -1.01127313427536
O          -0.31001326967553    1.63980501819945   -0.33853688475631
O          -2.06970402500877    1.20158934372507    1.27279790800497
O          -2.41343899063899    2.84174900337796   -0.48327157485971
H          -3.30087164256351    2.69610168744518   -0.17385393238362
H          -1.28265488075758   -0.04607335152575    1.87559357013097
O           2.68054200123523   -0.61953464434179    0.15593855014400
H           3.59947031940313   -0.65560001797432    0.42194254105540
O          -0.73789942137932   -0.78576037201030    2.25278205936517
H          -1.24445054511661   -1.13918697366965    2.98547792379599
O           1.48863494807985    0.55475143847221   -2.03461015929353
H           2.08956969220389    0.16610514585939   -1.37288678680426
H           0.93726390675822    1.18232434323021   -1.53176766501812
O           0.49538636236307   -2.28685807313444    0.33063139023724
H           1.37191108312968   -1.86292175544516    0.29651547640807
H           0.02301239601009   -1.84227175445479    1.05981321563706
H          -0.16172155136468   -1.75094618781864   -1.02130995048363
O           1.32067799237794    0.99877770295912    1.67816624419877
H           0.73054464816784    0.40832405120785    2.16907970005107
H           2.23333967289320    0.03271801013901    0.76992945997961
H           0.74753286607465    1.40461262828684    0.99701196242958
N          -0.47417445181550   -1.18481927681417   -1.86427101176168
H          -0.75209137211053   -1.77982671013306   -2.63601607403994
H           0.33689871104764   -0.54460148665022   -2.12051753582401
H          -1.27214904855564   -0.55315563670401   -1.56363894999009
