    26
        -50.46742658  Gyration_radius:  2.40207260478 Dipole_moment: 4.782
 S          -1.66800691383379   -0.23962588709257   -0.35261007367579
O          -0.85919750656107   -1.13768366254250    0.47148311464321
O          -0.65688214757869    0.61642312342800   -1.20681999776647
O          -2.46968503367025    0.65635532661120    0.44467052968406
O          -2.39233404547933   -0.97902135898310   -1.38344394015695
H          -1.31346838510386   -1.29860379121769   -2.27995879823290
H          -1.62923864962610    1.35738617279974    1.62498713941074
O          -1.03867433911430    1.83013462029990    2.26906423360710
H          -1.59196460021739    2.48704208950916    2.69429479438947
O           2.46758160274800    0.19570919349673    0.70580691905594
H           3.35091330946202    0.14951059613684    1.07311194470317
O           1.25985075909912   -1.74699990250205   -0.89050034008784
H           1.84908171945546   -1.04089169673885   -0.57467411216876
H           0.48271498383841   -1.68110531703920   -0.28337822864174
O           0.70607955694035    2.23987298200732    0.23200978818033
H           0.18293922233920    2.24133471090782    1.05680809149913
H           1.46807830111082    1.65172491165413    0.38320481481611
H          -0.16616892833885    1.30611585432084   -0.65677487476021
O           0.65223394975717   -0.35815387150315    2.51138395369188
H           0.17526637140010    0.44876357681113    2.75233120254026
H           0.04760140168853   -0.80769463675955    1.88677888994834
H           1.84539828829358   -0.06710133460193    1.44215399574357
N          -0.39316290845092   -1.43947860695812   -2.87786382173725
H          -0.46537218826895   -2.24028325487866   -3.49764846629528
H           0.39419759420402   -1.56459027740199   -2.14882440969491
H          -0.23778141408510   -0.57913956967007   -3.39559233856475
