    26
        -50.46932430  Gyration_radius:  2.52110565021 Dipole_moment: 4.872
 S          -0.59984715971472    0.31336546081180    1.27826698122907
O          -1.35046130084763    0.76098831359287    0.12381021152068
O           0.79900153913382    0.05245790477926    0.93321596219652
O          -1.20283292719100   -0.83670790861720    1.93731568423996
O          -0.59928187800983    1.50430858941282    2.29411532710565
H          -0.26800813507490    1.08702744875261    3.11403546855113
H          -1.75531551296356   -1.71695378880231    0.54832927883419
O           2.25681160907145    1.50855603641280   -0.64900808103262
H           1.66471158062681    1.05638772807782    0.00607281432235
O          -1.89619131803258   -1.96443064806001   -0.38522764791716
H          -2.26575080592162   -1.17318467077887   -0.78737007713709
O          -0.02948385085730   -0.24767438559248    4.18902190915169
H          -0.42136286489199   -0.73334613304672    3.43235575437096
H          -0.64736707417885   -0.34171118811239    4.91767184007860
O           0.72677327611142   -1.90702719775816   -0.85605115397694
H           0.86852765301894   -1.32318329139160   -0.08112075616232
H          -0.22886540996611   -2.13578936137189   -0.80496042733420
H           3.14045621642058    1.43145629712598   -0.28525756152535
O          -1.21020776703578    1.27404040109452   -2.42706510888651
H          -1.32234107338888    1.07577151082373   -1.46624670730562
H          -1.23555667918991    2.23051734869024   -2.48922723255204
H           0.20070623924908    0.49685588062206   -2.65988842627997
N           1.12956177139418    0.01523867618205   -2.54613245459949
H           0.96183999683760   -0.87449263271986   -1.94909653065876
H           1.72238318972071    0.64386423695477   -1.95007426216297
H           1.56210069568400   -0.19633462706378   -3.43748480407629
