    26
        -50.47318301  Gyration_radius:  2.44979471877 Dipole_moment: 4.452
 S           0.78550241558467    1.12268041371170   -0.27192056736563
O           0.50377758956512    1.22356289604781    1.14026703515377
O          -0.42758653130553    1.03674520382597   -1.07885122160338
O           1.66400677618978   -0.01983396849435   -0.56878487003015
O           1.54772878916043    2.41743023544534   -0.68723952372566
H           1.86308747210537    2.21788604512595   -1.58940328378676
H           1.79053334672802   -0.85230324766469    0.88307966083991
O          -2.96543582267456    1.18962338582876   -0.27474134822382
H          -2.05046023214598    1.27675958655253   -0.61091824140447
O           1.63784103023155   -1.20095045936387    1.78901732309943
H           1.51475534318215   -0.40060450885312    2.31138410091523
O           2.50542508785428    1.09843550256850   -2.77811372982504
H           2.25918089093787    0.46370106789437   -2.07413204535305
H           3.46224922856695    1.07375064503628   -2.84905119121793
O          -0.62947752160120   -1.55510215252960   -1.31513111218032
H          -0.64135907456491   -0.56804470145887   -1.32403020442911
H           0.28012876398743   -1.77638046554453   -1.53244750528781
H          -3.44563803524083    0.70036016309634   -0.94469425057460
O          -1.86610014215798    0.37947961453806    2.03920882032292
H          -2.46546365155729    0.70478805622012    1.33733253645119
H          -1.39819983422905   -1.03098657268884    1.66831518250489
H          -1.02283012453735    0.84605182185183    1.86485086164048
N          -0.87553027643805   -1.90944614950340    1.31532769627183
H          -1.27217656349054   -2.76554127553327    1.68530991604117
H           0.13525971364804   -1.78120010389401    1.60430332022747
H          -0.88921861779488   -1.89086103221522    0.26106262154254
