    26
        -50.46862844  Gyration_radius:  2.47539636826 Dipole_moment: 4.021
 S           0.14874194841936   -1.96959794469830    1.07125513797605
O           1.45967278321557   -1.45943974541337    0.77595550360442
O          -0.78607166043282   -1.69914586782242   -0.03446357881783
O          -0.40138022778837   -1.55878045618864    2.34645088126379
O           0.26154880606607   -3.55185709586857    1.14846620103331
H          -0.46081596257732   -3.75753408590653    1.73240500676705
H          -0.25061930318557    0.04219713542860    2.29595307472497
O          -1.19120433844121    1.79087701071733   -1.67828766066316
H          -1.84784681831538    2.32282163305039   -2.12800931273849
O          -0.24499613880495    1.02680468190796    2.20451832926233
H          -0.01558709719122    1.37247966314778    3.06890167629027
O           2.54714579721661    0.24472732954224   -0.95969430749231
H           2.43972844533077   -0.41342879684634   -0.24763668478918
H           1.31476404685363   -0.16879775335709   -1.71831914375620
O           1.04570789910576    2.20209627109140    0.04861224739353
H           0.66239486292779    1.80603820773923    0.84991524460925
H           2.20893650852274    1.08451159454797   -0.56968629929228
H           0.31667651959288    2.27572251602714   -0.58198305051475
O          -2.22290969099972    0.53490668080522    0.34767574076314
H          -1.85356231606557   -0.36365859224039    0.23624757395919
H          -1.75802075573175    0.89142806233620    1.12017965101636
H          -1.65948883504078    1.35298116742438   -0.90660527581665
N           0.31445887888124   -0.44270274046709   -2.06037365556608
H          -0.11185680627731   -1.03035060477245   -1.28788406975527
H           0.33704918518722   -0.95529136142837   -2.93411504400330
H          -0.25246576046678    0.42299310124144   -2.13947817546110
