    26
        -50.44962111  Gyration_radius:  2.52303593919 Dipole_moment: 3.590
 S           0.12114948889631   -0.35705655846980   -1.30457297289845
O           0.96634932239077   -0.71654980104982   -0.17745080782691
O           0.50409394507064    0.90487022777579   -1.90760239440833
O          -1.29120642915399   -0.35751224826592   -0.90168566427543
O           0.29513528837539   -1.49753275768127   -2.36038259536758
H          -0.28309097346161   -1.19723127999661   -3.10072422056670
H          -1.46849512513015    0.17580864282151    0.48975385347475
O          -1.59399555627664    0.55967280765990    1.42389353187282
H          -2.49691262172472    0.34735190259865    1.66811216691104
O           2.07876227199580    1.11647796566060    2.20200898727927
H           2.24420750637372    1.86240862588896    2.78255835388104
O           0.75749365096566   -2.52925610737210    1.56461344443270
H           1.64884950840162   -2.86606739825868    1.67845221797658
H           0.79667643241171   -1.93965514883362    0.75102481677728
O           0.57876627767301    2.21727909216606    0.38405316608259
H           1.63129203722705    1.49348013646955    1.38902271408612
H           0.65438430634349    1.81909743588257   -0.51037063711056
H          -0.30476361948492    1.98871304867264    0.69344327041165
O           0.23568810768685   -0.45205061276264    2.87771241564363
H          -0.53882036275061   -0.06003068472719    2.32394098580197
H           0.44862285677162   -1.37287145171934    2.42569199902693
H           1.04978456097958    0.16742225072723    2.64612854655814
N          -1.37462202939908   -0.06090009827431   -3.79037519361516
H          -2.07282391004689   -0.11977023502120   -3.05768271081850
H          -1.83394069453168    0.17518139743938   -4.66147967418041
H          -0.75258422956163    0.69872087869164   -3.52808360917728
