    26
        -50.44962132  Gyration_radius:  2.52277047384 Dipole_moment: 3.577
 S           0.25795358136158   -0.65750019438034   -1.15728159795801
O           1.00073114026419   -0.67585272504760    0.09259823216917
O           0.65218103926514    0.43707321643681   -2.02288708607114
O          -1.18621345394750   -0.64302546962116   -0.89057415282828
O           0.57695482307029   -2.01103010879518   -1.87284507614631
H           0.06439886427854   -1.93821149029395   -2.71220657761492
H          -1.51547551998009    0.20314239653749    0.30460700748560
O          -1.74383860631328    0.79623186719661    1.09943278858727
H          -2.65770347562291    0.59757225449721    1.31237470657378
O           1.81370086492115    1.74629804480295    2.01838398656808
H           1.89349293054893    2.62049659907286    2.40603531208018
O           0.69304175776597   -2.01822383482701    2.20632667717507
H           1.58090538996098   -2.26478105764487    2.47431901464842
H           0.78835334960418   -1.64439910018327    1.27782872342656
O           0.45445887756967    2.27572847914920   -0.13569101619408
H           1.43257308205345    1.88443713302561    1.10250382812694
H           0.63113683896377    1.67506609107781   -0.89214191265582
H          -0.44524017190780    2.07670278914276    0.14628083476295
O          -0.02599278233734    0.28454478984299    2.90852653027450
H           0.26230123320457   -0.70494835470681    2.72160896493025
H           0.78336985695717    0.87514755238797    2.59767610718716
H          -0.75754000179551    0.48122895772154    2.21113428846988
N          -0.99369912409359   -1.07501922988075   -3.75819923946515
H          -1.76031521323173   -0.99415813712137   -3.09976581014656
H          -1.36994605275904   -1.08846382061066   -4.69825973105402
H          -0.42958922781623   -0.23805667790036   -3.63978479228859
