    26
        -50.44962113  Gyration_radius:  2.52295424283 Dipole_moment: 3.588
 S          -0.80212191476764   -1.09032793810601   -0.10805023494610
O          -1.16845412689573    0.31668916801964   -0.11127238461666
O          -0.71302505313667   -1.63950557522900    1.23103209849226
O           0.44321606785701   -1.29326485145347   -0.85982211657808
O          -1.93338336942186   -1.83655466867664   -0.88845720572088
H          -1.64310059437860   -2.77796389522410   -0.84296480625878
H           1.41138735670336   -0.16847879875105   -0.63779843725028
O          -0.13866930748148    2.69524466878155    1.76952544776947
H           0.34214338257448    3.19617674044848    2.43187786873625
O           2.07926386903097    0.58084849711987   -0.46985318010918
H           2.76435133256212    0.46535676413309   -1.13114118892050
O          -1.20090311711315    2.03703832449947   -1.95616745754010
H          -1.26894344494813    1.24185015606629   -1.34457604679505
H          -2.00452544907063    2.54068714991564   -1.80977512383326
O           0.76750798319999    2.76107204966616   -0.57315674805894
H          -0.03790880234634    2.55067887670484   -1.20923750402167
H           0.35796382682957    2.80171004468397    0.39161280176966
H           1.32992493005497    1.89855307765732   -0.56701394447728
O           0.81719891262818    0.30660265937592    2.15352846021544
H           0.19656651314544   -0.42497112992706    1.94405296680454
H           1.50589575073666    0.26011596473497    1.48113357507894
H           0.06043767107800    1.73112963119277    1.95432513694157
N          -0.52287304451811   -3.98350732354612   -0.34259047423340
H           0.28088345094069   -3.59172249317141   -0.82035303394225
H          -0.40823871550675   -4.98765540538143   -0.27909115385177
H          -0.51459409772874   -3.58980166356772    0.59423266536259
