    26
        -50.45352419  Gyration_radius:  2.57429284094 Dipole_moment: 4.246
 S           0.80147849094167   -1.11672619144336   -0.31294558272501
O           2.02426423348890   -1.00218533896452    0.56698690280061
O           0.58862469586848    0.09850911452686   -1.06041751230328
O          -0.36558820035032   -1.48093003274449    0.47273673808857
O           1.15313734000317   -2.26840546015579   -1.25060169633658
H           0.25736694398501   -2.71139113081723   -1.49714471139814
H          -0.87823994454325   -0.32877184694321    1.51219740966648
O          -1.04326564804448    0.41291327317623    2.14155031447878
H          -1.62259789628561    0.06769111663506    2.82319441163792
O           1.85326344108617    3.01908393268810    1.29097633960395
H           1.73404657354713    3.82762528128362    1.79120322749786
O          -1.21330601224557   -3.02236075583040   -1.64583221413589
H          -1.43898129079262   -2.80802088040996   -0.73244792775374
H          -1.48859414059085   -2.22573844273666   -2.18305296930505
O           1.65025028472188    0.63269502815295    2.39446589343379
H           0.67486929652922    0.62787631905330    2.47507529617927
H           1.91657396998064   -0.30405716527508    1.37518083064402
H           1.88388469448025    1.52235942314360    2.02284331276160
O          -0.43234740160485    2.30388681861455    0.12853539238966
H           1.03190261103261    2.89149693913880    0.75827210598588
H          -0.06987446822559    1.59916880470125   -0.43747300315113
H          -0.87226531387281    1.84333623912373    0.85539405934727
N          -1.57797901934424   -0.65768040177261   -2.79830432568885
H          -2.40081728291609   -0.09470095783943   -2.62181786745252
H          -1.36366348007383   -0.58400823218766   -3.78499252104407
H          -0.80214249682452   -0.24166547320149   -2.28358189325283
