    26
        -50.45352417  Gyration_radius:  2.57438060737 Dipole_moment: 4.233
 S          -0.01823659373393    1.32811419198325   -0.47399783947105
O           1.10314074873964    0.48289053380039   -0.14369929023808
O          -0.41871707225420    2.18005458013655    0.70764895904815
O          -1.15067142776163    0.55901263378810   -0.96174055628771
O           0.37861192300485    2.35825214647704   -1.52791414101519
H           0.17393228738196    1.92055589896967   -2.43660653592114
H          -1.67645173300096   -0.60507162153908    0.05807636546498
O          -1.93822675372268   -1.22019802843506    0.78363606953842
H          -2.82489174780923   -1.52186024784468    0.57800291199453
O           0.67622690814724   -0.40515324226142    3.68485453483595
H           0.56811979933616   -1.01510592116006    4.41590799368181
O          -0.20224059874866    0.93685784153117   -3.51977356126200
H          -0.95409849827000    0.56639901206089   -3.04167786866858
H           0.54107230855007    0.27946307628512   -3.40031170427015
O           0.77961880711061   -1.73047643680814    1.37830379332929
H          -0.16093687992785   -1.85457909287732    1.19426097854364
H           1.05237224232551   -0.98215518295474    0.81801232334076
H           0.86899208373276   -0.95163634132384    2.88562168229476
O          -1.37087099009257    0.78438712869899    2.52364024157109
H          -0.60131805969067    0.46453006049363    3.06184393138551
H          -0.83547413939188    1.62390187147738    1.52565113673673
H          -1.69214421914657    0.00224376459662    2.03082952246234
N           1.73629567332514   -0.68223454274347   -2.69871066811143
H           2.67442760676836   -0.48592192225918   -3.02461265333906
H           1.62443845272680   -1.68834987229457   -2.67810136944583
H           1.66702987239455   -0.34392028777598   -1.73914427619388
