    26
        -50.45352419  Gyration_radius:  2.5742932217 Dipole_moment: 4.239
 S           0.29429831742353   -0.75382706655439    1.15493005136842
O          -0.90766493686455   -0.72356971021023    0.35786465594385
O           0.19990649902905    0.21398165806313    2.31116792822607
O           1.47986831257753   -0.48903646286301    0.35728679992007
O           0.44666955626040   -2.10693488138773    1.84439462259572
H           0.99458123186348   -2.68980831732509    1.19700117082501
H           1.45149797199517    0.92435097770410   -0.46276045497449
O           1.34243741107728    1.82619397748168   -0.84771655320143
H           2.21277682558465    2.10561344943903   -1.13736063066227
O          -2.20630047796776    3.00748210744380    0.53904860944533
H          -2.45574965499797    3.84720296976070    0.15069432920054
O           1.74047279768089   -3.20602505356497   -0.01132223952854
H           0.98114930408404   -3.24549150817284   -0.66007552044327
H           2.19338611937334   -2.37385911584624   -0.19430507940550
O           0.20597895702274    2.55985446100949    1.50553106985259
H          -0.73679060800777    2.78269742542127    1.29158187452606
H           0.19617678944974    1.24636250508984    2.01727174910774
H           0.66035019737441    2.47693897011485    0.64267946070752
O          -1.39412569943263    1.31716441387621   -1.35037888666824
H          -0.47392133970540    1.59130579733867   -1.46001934591342
H          -1.35765350432091    0.51809056128585   -0.79492164915889
H          -2.07167676609635    2.37769307753283   -0.20921094856032
N          -0.45160744034032   -2.89360526825970   -1.47774111950731
H          -0.78034844649773   -2.12409827797275   -0.89483128885610
H          -1.14768024587090   -3.62745457590554   -1.43532551414095
H          -0.41603116069898   -2.56122209353666   -2.43348309068269
