    26
        -50.45352403  Gyration_radius:  2.57449979613 Dipole_moment: 4.236
 S           1.12172852832240   -0.84546465322488   -0.12122247105429
O          -0.16907753503712   -0.93098661842277   -0.75962523352540
O           1.15290301853803   -1.66747483753791    1.14588881166630
O           1.50208158286230    0.53101272358389    0.14835358400921
O           2.19330592363829   -1.50045723095376   -0.98844206260973
H           2.56279002266412   -0.75043353347993   -1.58865452291759
H           0.43191557340219    1.37132772794739    1.05378742195166
O          -0.25265394778683    1.74431284433527    1.65847421596477
H           0.12792124597895    2.53463409026123    2.04582249483763
O          -2.78371452256634   -1.29384920090611    2.18686738382500
H          -3.54552709092344   -1.01196809770567    2.69509709498129
O           2.78090653520164    0.56946540370605   -2.29015501382343
H           2.64308463879375    1.10853111375435   -1.50172901545292
H           1.92378091810804    0.61973786506052   -2.80176447837765
O          -0.31594604478249   -0.67765079452454    2.88199008798265
H           0.53068941237587   -1.28330410746394    1.93189547018141
H          -0.35123768306921    0.26088365036859    2.60669335722782
H          -1.22455671924058   -1.03998394821514    2.71618102071068
O          -2.29708687516377    0.42646073360194    0.21451194685189
H          -1.79102457266944    1.10460313519855    0.68139401550542
H          -1.63306382012837   -0.10810874772447   -0.25631137176018
H          -2.74870317071617   -0.71848027750009    1.38541366400926
N           0.30193198115290    0.45843154066414   -3.23633840736696
H          -0.28283931903138    1.28178489632977   -3.30973036609562
H          -0.02267138251992   -0.08077333300889   -2.43389447073330
H           0.14506330252863   -0.10225032404812   -4.06450312603746
