    26
        -50.44680265  Gyration_radius:  2.53331023846 Dipole_moment: 3.785
 S           0.39187949802383    1.46403438379581    0.59451206247501
O           1.42194176447519    0.46749410562799    0.97014233163058
O          -0.90814432019815    1.06412188017211    1.08523819734246
O           0.41090812118133    1.65632408192331   -0.85367282564003
O           0.78233834323808    2.79439257114769    1.27980979603867
H           1.67876975430716    2.98073264904787    0.88331131166567
H           0.03228687329833    0.26430956247921   -1.50606770305410
O          -1.55621260831953   -1.47426244249156    1.74732567855565
H          -1.33114723619871   -0.56845154979282    2.01808391582151
O          -0.20620640168239   -0.65867704163111   -1.79802155426414
H           0.13865825566654   -0.77504099132009   -2.68424226016299
O          -1.60103341038628   -3.19701193229472   -0.73037156807411
H          -1.78156056367134   -3.67988507147311    0.07830235288581
H          -2.34872940565209   -2.61100185182317   -0.87906271235004
O           0.57863921485616   -1.77764409641760    0.43453660620768
H           1.03005060169023   -0.82681281390831    0.70353543854728
H          -0.29054970918105   -1.81038600067237    1.01848507232097
H           0.25143765196641   -1.64359566174075   -0.50216082360206
O          -2.63454256699297   -0.41884936356231   -0.47452218898158
H          -1.96500837763267   -0.55510347265238   -1.16254722983239
H          -2.16763815774718   -1.31692165602461    0.99305405458532
H          -2.32031780823336    0.36625913786522    0.00189258635322
N           2.96704669995845    2.69942595258299   -0.12133557620061
H           3.36448529705347    1.85407625323576    0.26912667765180
H           3.71201085143429    3.27906620530459   -0.48602497055733
H           2.35063765852911    2.42340718257027   -0.87932668923051
