    26
        -50.45352431  Gyration_radius:  2.5739419885 Dipole_moment: 4.247
 S          -0.89320398942662   -0.99797815136875    0.44690498939410
O          -1.91711680157430   -0.28234342775077    1.29673190810514
O           0.44603364127797   -0.69607742909526    0.88988982075750
O          -1.08186342134962   -0.68456248586105   -0.95952119977492
O          -1.21558258866845   -2.47153480703379    0.67886252371330
H          -0.94086913736823   -2.95699046418692   -0.18622665161110
H          -0.74627416040124    0.86267731300901   -1.36515058631789
O          -0.58073176740478    1.82992472685376   -1.46718677605121
H          -0.95981935365541    2.08336066734016   -2.31069821284152
O           0.31223350521883    3.01962585833754    2.23355472340183
H           0.57912435536351    3.93993828888537    2.23538786240892
O          -0.38078931567987   -3.28102292790856   -1.55106976260539
H           0.58780078151824   -3.11614508100824   -1.36703798370383
H          -0.70460186103849   -2.47445348383762   -1.97027847123371
O           1.60188930409242    1.68403932500347    0.32567514609182
H           1.33085675594924    0.78885020005970    0.59691184218783
H           1.05611725475560    1.89080775690793   -0.44460982366217
H           0.93001095419426    2.54633740872603    1.62608146496905
O          -1.81445792566354    2.16836129955785    0.92718321666327
H          -1.11734492415268    2.51405649612953    1.54254469513534
H          -1.42568445977377    2.22225396250140    0.03068094970325
H          -1.91373115854925    0.78422067579937    1.17724157578298
N           2.01617855021996   -2.47270971364980   -0.74263197146375
H           2.57785920431167   -3.13274155301212   -0.21942428749473
H           1.61414552422123   -1.81436334145278   -0.07560907959375
H           2.63982102361914   -1.95353111292616   -1.34820589197481
