    26
        -50.44680265  Gyration_radius:  2.53344844296 Dipole_moment: 3.787
 S           0.31637265900054   -1.02333339280666   -1.22575338274895
O           1.54923023921499   -0.63310300963480   -0.57874791879879
O          -0.41000599698994    0.16618241605269   -1.72833972790362
O          -0.56206551963440   -1.78965092088672   -0.34498256095676
O           0.66695236353261   -1.88983049132349   -2.45797111592931
H          -0.23432241798291   -2.10285428997059   -2.82930172459362
H          -0.91210505985469   -0.85286537039774    0.88239842285872
O           2.02443831435655    1.84360546817309    0.39471429139360
H           2.17498015758469    1.16944864843775   -0.28875549585721
O          -1.06626091013015   -0.17217648554833    1.59436976248176
H          -1.89878126766188   -0.38557271343711    2.01766348477168
O           0.23131231904203    2.37092705454853    2.76457111658305
H           0.78772215890155    3.11596368950067    2.52969543913243
H           0.81276444292872    1.68266155819883    3.10043241505964
O           1.65579433608319   -0.16574937061740    2.13770562943917
H           0.69342971820059   -0.23733840390621    2.23208541793107
H           1.84261776566973   -0.63586472332448    1.30929426964061
H           2.05269447784916    1.30913892213445    1.22007591117361
O          -0.47668896720278    1.85887825446787    0.05173541638533
H          -0.78273629035311    1.30933050572851    0.83070012117289
H           0.54566648963719    2.01366164327321    0.22028475541719
H          -0.49458085534317    1.17157455501656   -0.78969516217253
N          -1.89179248660886   -2.09432894812266   -2.85414266796447
H          -2.58827925758592   -2.67290749162002   -3.30592474741886
H          -2.10238052961864   -1.12026441654831   -3.03249891421794
H          -1.93397586303169   -2.23553269738334   -1.84961304487001
