    26
        -50.45546747  Gyration_radius:  2.49775316804 Dipole_moment: 5.320
 S           2.18035854864219    0.04674447571379    0.04627521512845
O           2.46075380795960    1.17839040638253    0.88966411030964
O           1.20324854288295    0.34300344758481   -1.01702619757367
O           1.82184463044694   -1.17791595160903    0.72084553907744
O           3.54335907136900   -0.24256686282354   -0.73660882151653
H           4.06855256697507    0.49923650247882   -0.45610326927198
H           0.56323429768932   -2.29816213922002    0.73616419979963
O          -1.44651427457962    3.11000474618859    0.19477238898717
H          -2.31644507539565    3.43204731980564    0.43382093251671
O          -1.72648709569968   -0.52849151857961    1.34713052179023
H          -2.33730892514834   -0.52540022907395    2.08511335014985
O          -0.31943736967532   -2.67152250076904    0.51318681500350
H          -0.30538150898330   -2.22459209657358   -0.90961780617397
H          -0.94091342380594   -2.03627732149599    0.92428578577289
O          -0.02415764119658    1.36354010578795    1.82258409770463
H           0.91611370372388    1.30955274507656    1.56959559277335
H          -0.39078717612108    2.12498814800234    1.33673395313015
H          -1.00937899155296    0.12927023570640    1.58758029627286
O          -1.51024686536317    0.69626213887009   -1.12887482108983
H          -1.74637738782096    0.25530293439370   -0.29477089842183
H          -1.57749920139619    2.38869361889573   -0.44937979438424
H          -0.54024199259104    0.78260051692948   -1.10156435415805
N          -0.18291815195771   -1.66162321619711   -1.84455204320141
H           0.53274121463322   -0.89838850405425   -1.58870832548647
H          -1.04657962584990   -1.15708479755397   -2.06334088210794
H           0.13046833298531   -2.23761219393294   -2.61720556459041
