    26
        -50.45546713  Gyration_radius:  2.49853556926 Dipole_moment: 5.320
 S           2.04137079308799    0.65552516270138   -0.40690958542706
O           2.77126920005828    0.12014556617916    0.71175003560693
O           0.82566120342382    1.38846935462042   -0.00938137821265
O           1.73495425923163   -0.27150522023453   -1.47002137677056
O           2.99373222051397    1.77513725961676   -1.03354774498813
H           3.69635237611502    1.78590108727958   -0.39231321484748
H           0.38771873130769   -0.85990405139510   -2.29390204871412
O          -1.22771451771531   -1.88591338795540   -0.03641870673670
H          -1.54757191616223   -2.76716776383354    0.16055927669048
O          -0.75180949918324   -0.16634778728631    3.34781363934114
H          -1.42323890929230   -0.61066177086110    3.86691904768269
O          -0.56751035663143   -0.98883192681284   -2.49165882264885
H          -0.96438994661135    0.41575298790173   -2.18467877868991
H          -0.89503028670740   -1.47336853006042   -1.70638861546851
O          -1.66302768679841    0.68645444505066    0.89344726580221
H          -1.67091518278673   -0.23633839254662    0.58595326228251
H          -1.21162987095345    0.28529585652498    2.61499758183190
H          -0.74212357831948    0.98212807782509    0.77716257162068
O           0.82389790583258   -1.51341667863221    1.49695949388274
H          -0.37280460168020   -1.78780029378943    0.47822498497888
H           1.59794359768565   -0.98621214897889    1.22435338845315
H           0.44680457129839   -1.05739174004062    2.27159481313456
N          -1.07510512964286    1.41578697026379   -1.74459146952111
H          -0.19787656837100    1.51991645818958   -1.12820525976614
H          -1.86418549207173    1.42420642997834   -1.09225857630994
H          -1.14477132562290    2.15014003622472   -2.43945976312291
