    26
        -50.45546678  Gyration_radius:  2.4983029102 Dipole_moment: 5.314
 S          -0.52853676956519   -1.92364617153389    0.88393930226265
O          -1.34548226644317   -0.79478820897316    0.40325049013909
O          -0.10152893799319   -1.77338454253007    2.24988962723608
O           0.50469423016885   -2.23102143198220   -0.07607665381383
O          -1.53323886794056   -3.16637479132270    0.89167457697930
H          -1.58432242977981   -3.34483625161126    1.82454007173563
H           1.13114849077621   -1.60714886638433   -1.51051319052504
O           1.83190530341045    1.13570002241303   -0.65017608950873
H           2.67393001998357    1.59206768125452   -0.62924504520069
O          -0.24755127301542    2.63633255876596    2.18956826198011
H           0.11236516455733    3.52371226806096    2.21726488717339
O           1.24629100571824   -0.95968074147556   -2.24246090929511
H           1.62524587806198   -0.17755419038027   -1.79149797895001
H          -0.19779336446768   -0.59960501453648   -2.33978199619088
O          -0.84513058258954    1.78703710904360   -0.36053670836726
H          -0.62879759550875    2.51178440700179    1.29988582157046
H           0.10594782771229    1.69971561275054   -0.54438167124466
H          -1.09084370330363    0.95965269173448    0.09128897214006
O           1.35697040155856    0.40323626329376    1.78691585212581
H           0.80191320295736    1.12475985845556    2.13559901304746
H           0.89382008934626   -0.42544893967537    2.01045226179691
H           1.70491606350842    0.76085304502118    0.27091091858433
N          -1.24507648421090   -0.34497111235576   -2.12904123083726
H          -1.35700208723597    0.67228055753094   -2.09753492649248
H          -1.38688809710228   -0.67619901903930   -1.11409225819131
H          -1.89695522851928   -0.78247280354227   -2.76984138838364
