    26
        -50.45129005  Gyration_radius:  2.6156217913 Dipole_moment: 4.160
 S          -0.82221560322750   -0.85369533418732   -0.84011737889027
O           0.05809051195233   -0.15730029156227   -1.73528181124526
O          -1.54048278729178   -0.05942074575843    0.11150065287792
O           0.01689109577517   -1.91054290909528   -0.08462465601355
O          -1.82029915673713   -1.68990666927245   -1.65621794432732
H          -1.25714074156199   -2.10475758802231   -2.41250933781273
H          -0.22813095115105   -1.87638525414716    0.91049498979567
O           0.61532432094023    3.55391894131672    0.16949243229252
H           0.95666409095404    4.27732096743672    0.69696169382462
O           1.06483883282036    0.50304899683794    2.47442175964598
H           1.87265351849891    0.42783288211354    2.98402797481455
O          -0.68953863550687   -1.48979742158209    2.30377832884395
H          -0.01459523320339   -0.79996952636565    2.50873204199608
H          -1.47690657338982   -0.99910702256419    2.03865249904490
O           1.73597123949678    1.09078819229901    0.02668654043626
H           1.22755195550025    0.63871736532580   -0.66439386420411
H           1.45802633306755    2.02954831327039   -0.03154181829024
H           1.34895452859889    0.67954324583815    1.52994087540588
O          -1.09321104303528    2.15724187398191    1.69922259036242
H          -1.42400674355307    1.49340458789868    1.07570474487265
H          -0.41779454994888    1.69921618050064    2.21913700520463
H          -0.12523033251130    3.16115184735221    0.68545691759408
N          -0.08658590232447   -2.44617266102932   -3.37807936993629
H          -0.25159256398462   -2.49850530901726   -4.37453506223235
H           0.47636455813728   -3.23675469943041   -3.09400250456047
H           0.41639984167924   -1.58941798218971   -3.16290728948755
