    26
        -50.47117023  Gyration_radius:  2.45849904372 Dipole_moment: 2.473
 S           2.21860192441376    0.29715155767733   -0.33267857001633
O           1.61580732383475   -1.00332181105820   -0.08974141624685
O           2.69200925626489    0.97222999747469    0.84137199053291
O           1.31694592773115    1.13124150102707   -1.14118147010299
O           3.49568293757629    0.04283596742687   -1.24678583527614
H           4.19489856167641    0.40948440354640   -0.71479830857180
H           0.56369739206771    1.77678573748694    0.21641712939775
O          -1.98648303814206   -1.42005898832478    1.21223109293664
H          -2.46647410432314   -1.90805033075756    1.88161583254990
O           0.08646403301512    2.02429516036336    1.03556151500141
H           0.72985920064546    2.51711948972202    1.55032881488412
O          -0.58138975060687   -2.24471899791277   -1.01514637994035
H          -1.15273397647426   -2.17158053091435   -0.22919056905769
H           0.31185641237174   -1.99656560149897   -0.70443603612816
O           0.25480351914767   -0.50356819570044    2.14590326289207
H           0.89665806584833   -0.80065596972254    1.47395394898506
H           0.18912507898412    0.45570937093052    2.00180091133534
H          -1.13340818404574   -1.11544612133283    1.64122965799714
O          -2.36747599503271    1.04671653689438    0.08530804959891
H          -1.67797024305239    1.56005090871907    0.53238430021127
H          -1.64485546303323    0.58303458621859   -1.27208651090345
H          -2.40934921397860    0.19137827626718    0.55402000688671
N          -0.97329444532384    0.15391321426508   -1.97442064629760
H          -1.25641968331691    0.32469817544415   -2.93191004337597
H          -0.89403749643139   -0.88847500740156   -1.74623065103335
H          -0.02251806982373    0.56579667116281   -1.77352006625632
