    26
        -50.47117019  Gyration_radius:  2.45849261466 Dipole_moment: 2.477
 S           1.85826059495435   -0.46620038053171    1.20453347328073
O           0.52171059362725   -0.86451653969137    1.61496600783681
O           2.29969720543192    0.79526727683772    1.72608665923064
O           1.98619023734229   -0.55058590984656   -0.25802396121266
O           2.85669365385958   -1.56211196411920    1.78189933313114
H           3.44200676943983   -1.03393119948009    2.31544567204689
H           1.48724678264091    1.03980604486598   -0.47585458224054
O           1.07844300169761    1.92761630991891   -0.54515023219722
H           1.70817649404681    2.51676599116945   -0.12304007507573
O          -2.66787409076554    0.56093987915284   -0.01112750247575
H          -3.51232674697886    0.93197389883191    0.24544256599463
O          -1.57760204818132   -1.95067012934334    0.33533339610240
H          -0.87143690058877   -1.70036885575311    0.96361675608328
H          -2.15686529929593   -1.16910705568672    0.28013055509729
O          -0.74987525828077    1.47343923064856    1.48004389345769
H          -1.98721088987712    0.94581304666875    0.61588501415664
H          -0.29775685304460    0.65586459849060    1.76088024845852
H          -0.13542904331815    1.87618555139550    0.84318799836931
O          -1.02521145578897    1.00193582854512   -2.15734427497300
H          -0.43047340702543   -0.48685158727525   -2.05951569102987
H          -1.74004505672839    0.94108531693379   -1.49522591555382
H          -0.33048800528822    1.53923792395434   -1.74814200940027
N          -0.03420680768918   -1.40496152953722   -1.70113968516676
H          -0.71645174090308   -1.78449057373753   -0.96939828887410
H           0.84939562600432   -1.16741550355666   -1.17498965629427
H           0.14543264470702   -2.06471969886813   -2.44849970874324
