    26
        -50.47117023  Gyration_radius:  2.45852603611 Dipole_moment: 2.470
 S           1.33461991237369    1.03190138239516    1.50853580929469
O           0.45593982414051    1.84078024971403    2.30346853494578
O           1.34132913099872    1.34822528652410    0.08953992285728
O           1.11321791617245   -0.40831623275146    1.70617090517852
O           2.80622526482813    1.31251517650818    2.04412410920494
H           2.64796077212488    1.95711642013207    2.72663351821931
H          -0.55646635579376   -0.22497901806986    1.77774600179140
O          -1.52018305349272   -0.07065467511862    1.69124011605646
H          -1.74609540054135    0.47487312774808    2.44833712321685
O          -1.41588708487014    0.15736641961962   -2.32444004636553
H          -1.97950964243468    0.50680391865553   -3.01496474315898
O           1.32321440630639   -0.13286286261081   -2.15331380697947
H           1.48048898387033    0.52914880351187   -1.45113641947627
H           0.40190770770687    0.01118137628264   -2.43602562192356
O          -1.76391947388097   -1.83537074316840   -0.47847135935408
H          -1.79547900694703   -1.19993558927044   -1.21892998752788
H          -0.18281471105703   -2.11100024263286   -0.41769134896322
H          -1.92332776876472   -1.31543030129697    0.32342830835339
O          -1.25096945247104    1.80375570043894   -0.32513419922548
H          -1.55957750486383    1.27765526281763    0.43200379261292
H          -0.28707153053104    1.87047535702435   -0.18997430241884
H          -1.39017865064786    0.85138994274954   -1.60176386449720
N           0.87192249335824   -1.99234972659995   -0.37403441651530
H           1.15818183487066   -1.36751483023992   -1.19413229928136
H           1.35944578096576   -2.88026258271058   -0.36939433264089
H           1.07702559858835   -1.43451159965150    0.49817861660578
