    26
        -50.47117018  Gyration_radius:  2.45854489971 Dipole_moment: 2.478
 S          -1.44722573383681   -1.29690367531759   -1.16029144690476
O          -2.74626555432911   -0.96977168684280   -0.64679637613469
O          -0.51570891363044   -1.82586539086194   -0.17743218212465
O          -0.83088992237920   -0.18177442631352   -1.89446736155589
O          -1.66981873738184   -2.44449730282428   -2.23949421728265
H          -2.61219725622720   -2.57285412506060   -2.19878897518431
H          -1.39817767550152    0.96027467044235   -0.79904581212726
O          -1.65316119221374    1.56034756034028   -0.06762704818787
H          -2.61321529055261    1.55915379732506   -0.07793259496641
O           1.38557644974225    0.42147641477422    2.30926057187224
H           1.58918337249648    0.46270992128477    3.24385470347387
O           2.08431890326402   -1.39150827069928    0.34956240776932
H           1.99906503867617   -0.86231285923552    1.16330687993079
H           1.19402431346308   -1.76460654625715    0.19415426009396
O           0.99562754344339    2.35608579990747    0.41059344853811
H           1.49071136105062    1.36882993519323   -0.75559745686532
H           0.03130253645060    2.33047726832075    0.31970205214173
H           1.20423158619605    1.81029236791486    1.19268210184726
O          -1.08229223312618   -0.27953844303364    1.91743861542538
H           0.42871621169306    0.13114857670002    2.24077963904690
H          -1.44905285673756    0.45356274164043    1.39459995059138
H          -0.99202991249461   -1.00735508769875    1.27409797657006
N           1.64544927055215    0.52068296581791   -1.37611421069863
H           1.99997402401874   -0.27262650996600   -0.75170436085889
H           2.26861908966901    0.71808218360036   -2.14994065201837
H           0.69323555769696    0.21649013085723   -1.71479989238356
