    26
        -50.47117021  Gyration_radius:  2.45852711237 Dipole_moment: 2.475
 S           1.14904708475728   -0.40595841378178   -1.90701197010286
O          -0.20139741783822   -0.88983517344275   -1.67092681795177
O           2.19134981967083   -1.31918169698877   -1.53582849450604
O           1.32263808650383    0.92588954678701   -1.30827803698212
O           1.28571740965972   -0.18692559934450   -3.47690062120165
H           2.02248508197901   -0.75060972429339   -3.69086640233767
H           1.84709174256399    0.28851672415364    0.15651752206498
O          -1.85030338034605   -0.85408383988864    1.81103847657639
H          -2.34630514786447   -1.43601076736688    2.38719159166059
O           2.02951546716045   -0.14209013845455    1.01751908230640
H           2.84695319271323   -0.62572292087201    0.87704633824926
O          -2.43255588386852    0.21989112078428   -0.66343235842594
H          -1.76421439589543   -0.27304238447246   -1.17953847947843
H          -2.45079080115924   -0.21468212162596    0.20853559010755
O           0.11637047386871   -2.11070543694766    0.67601201985469
H           0.89956051219937   -1.59912948969485    0.94090425997455
H          -1.12516396164735   -1.41184377261342    1.40161856550271
H          -0.00764322982850   -1.88382331699571   -0.26470082839438
O          -0.08579327483977    1.18175944996256    2.30322578334650
H           0.75571855244597    0.74729166706670    2.09853009910282
H          -0.46415663657095    1.89922867246503    0.91699352481778
H          -0.75644102603115    0.47243596053606    2.31398675111450
N          -0.69756911434922    2.09097327519717   -0.10143389089655
H          -1.53033641039581    1.47134176960245   -0.36130200831596
H           0.11620932016549    1.73300865464860   -0.67029137830327
H          -0.86998604306201    3.07330794558180   -0.27860833777955
