    26
        -50.47117022  Gyration_radius:  2.45857171043 Dipole_moment: 2.473
 S          -1.58421248213840   -1.59080004213230   -0.28623311992019
O          -2.78138961938559   -1.04136851723272    0.28226184627090
O          -0.47361900448427   -1.72942638847434    0.64166815873966
O          -1.14959118002230   -0.87359912714606   -1.49408692679234
O          -1.95485738306319   -3.05893882776973   -0.77444877230886
H          -2.86929861455735   -3.12696820029511   -0.51902781741721
H          -1.55247642926296    0.62540191727543   -0.84779353621736
O          -1.69367079591724    1.47186009401942   -0.37492438806974
H          -2.63938417381287    1.50260811678436   -0.21210264732516
O           1.76014997377858    1.23594055568086    1.67575512031670
H           2.12584118014153    1.62932368993614    2.46825617714409
O           2.16202720652871   -1.22240359941114    0.48810527160584
H           1.27213219794118   -1.59293050002576    0.65154919553639
H           2.20439617893548   -0.41488624322474    1.03185418544111
O           0.96830380229613    2.29046746035622   -0.72469669143771
H           0.00478410083850    2.26772773166354   -0.62501562717395
H           1.33266757048736    2.08573795687356    0.15753027197083
H           1.28209106322837    0.90883240079455   -1.48103504003255
O          -0.71160109422318    0.53023392271847    2.03348308562781
H          -0.71174374789327   -0.39337075495940    1.71926069571489
H           0.81738811025716    0.97783245601821    1.89718698991734
H          -1.19180753303064    1.01520083287153    1.34103612023732
N           1.35353617937999   -0.11933363676133   -1.73841087820014
H           1.84187734679987   -0.61921218146617   -0.92819798281665
H           1.82100763589013   -0.26264141660721   -2.62556487837202
H           0.36744950129946   -0.49528772949293   -1.75640883244419
