    26
        -50.47117021  Gyration_radius:  2.45855685751 Dipole_moment: 2.474
 S           0.18128767719798   -2.16477852959476   -0.63505957587086
O           0.90515850090919   -2.81135458263119    0.42144564582225
O           0.89333560113881   -1.07962507305554   -1.29011069016627
O          -1.15379236301597   -1.71433257879397   -0.21439720469911
O          -0.07586476817414   -3.27550187699566   -1.74485997656698
H           0.35221064518475   -4.03615763925285   -1.36504600375978
H          -0.60111564479999   -1.21820234872153    1.29367588127564
O           1.17958540299224    2.44636419308109    0.23958891138647
H           1.84440142429504    3.11395955275329    0.40971474400223
O          -0.19930627918278   -0.84127651728315    2.10397944578945
H           0.13430840185340   -1.60263618872810    2.58446298297324
O           0.19651329627524    1.38364461628607   -2.11009548629445
H           0.63702838854514    1.91498347069043   -1.42227880394786
H           0.56101653964213    0.48214618645206   -2.00786217871891
O           2.06575378623553    0.07386182496098    0.80639833813621
H           1.42966615849298   -0.25837963549340    1.46236768395384
H           1.85375930463952   -0.42661402459527   -0.00374986042727
H           1.59945581758325    1.56477811501378    0.46546283572461
O          -1.12493090958395    1.74881716160663    1.54435817065966
H          -0.84442436671093    0.93383327443711    1.98702915110901
H          -0.31037891500263    2.15367289801098    1.18990244433341
H          -1.78067809091087    1.20803114597104    0.18200491570119
N          -1.94013585554433    0.73218308136012   -0.75436665038335
H          -1.18893530592229    1.08951617865471   -1.42726336115966
H          -2.87978652058252    0.87599788384158   -1.10433582330884
H          -1.73413191554972   -0.29293058795571   -0.61096552559141
