    26
        -50.47265918  Gyration_radius:  2.39613831756 Dipole_moment: 4.347
 S          -0.16433585188482   -0.55318928333985    1.67551070244747
O           0.95656197153918   -1.24547107963833    2.25253985146217
O          -0.71385173143593   -1.24475825730564    0.50854812396885
O           0.05600180583992    0.85207928729007    1.39828957560963
O          -1.31715322069373   -0.59690631883923    2.77778717397731
H          -0.97293403354431   -1.26753494771024    3.35672751611702
H          -1.47113651245340    1.57350911062474    1.37072131659661
O           2.66348521260561   -0.76224899602567    0.21587999406328
H           2.18526997091998   -0.95207602647674    1.04303276958499
O          -2.41769071390709    1.77807436526158    1.23578461277112
H          -2.88206019750045    1.28831070337589    1.91728751894445
O          -2.09322593967984    0.40342859769190   -1.05184828898389
H          -1.72712881231412   -0.31044898237970   -0.48942150082337
H          -2.37512723133704    1.08015715218653   -0.40403343491345
O           1.82376974940511    1.68231245105463   -0.40960487014498
H           1.20127840016893    1.66758433078123    0.34086628400517
H           2.38738038971872    0.89523920008766   -0.23155019779753
H           0.90583593906580    1.20158636152069   -1.52355872358329
O           0.74767545495462   -1.90619951936379   -1.54254162511121
H           2.27320570525219   -1.33729340019837   -0.45411221158418
H           0.19875844662546   -1.71954121928636   -0.73922810806610
H           0.47436519923603   -2.76933293228457   -1.85641800080520
N           0.23448480805883    0.70062712994712   -2.21411647955071
H          -0.75614569901891    0.72061686797773   -1.80511916742352
H           0.51568278835231   -0.29529473599588   -2.23377033929594
H           0.26703410199726    1.11677016103324   -3.13765246148696
