    26
        -50.46760041  Gyration_radius:  2.4148281768 Dipole_moment: 4.156
 S           1.69699230659776   -0.34419019645898    0.54507813386940
O           1.70666429827414    0.11464065817588   -0.84716913453517
O           0.35005643665032   -0.56023528095203    1.01338208348600
O           2.51933572139741    0.46869198740988    1.40707133865335
O           2.37832712092473   -1.78407196523006    0.51728566672371
H           3.30053125298538   -1.57714329323231    0.62496908470468
H           1.40960898186382    1.55543327652918    2.02783902036816
O           0.77058318140260    2.28111204461352    2.19396900855669
H           1.28751549620923    3.01614772753281    2.53052080939884
O          -0.89509449781935   -2.65096644930017   -0.14255555982014
H          -0.25120097580052   -2.10945356974316    0.34736397056273
O           0.13055594936040    2.22946948434106   -0.39881024724362
H           0.81727657329269    1.57703430460405   -0.63538445170964
H           0.23548898615457    2.36407414365283    0.56870381553469
O          -0.13987637933335   -0.96396664057451   -2.31173275139666
H           0.59374278674107   -0.60278276758260   -1.74411481462926
H          -0.75000147238275   -2.41829170149318   -1.06681349218222
H           0.19064895895646   -0.93497721982334   -3.21088702578625
O          -2.37958279457806   -0.79043109303088    1.12671657302263
H          -2.17645111584231    0.12378971405360   -0.11981698113605
H          -2.11695716209692   -1.65195224184946    0.73809772341483
H          -1.59042476460422   -0.52192044647270    1.61718678227247
N          -1.88109953937962    0.66973869784717   -0.99523195921198
H          -2.67441390389412    1.10542903977298   -1.45143647558173
H          -1.38793890304576    0.00974563614317   -1.62855077011335
H          -1.14428653199375    1.39507614105981   -0.70568032725695
