    26
        -50.46596329  Gyration_radius:  2.52195446814 Dipole_moment: 2.174
 S           0.71353193458975   -2.00046285859387    0.39821207065835
O          -0.60028968197039   -1.91527787908212    1.03214752297143
O           1.47849436755236   -0.78117830336406    0.58466300013385
O           0.64583477935998   -2.46293888916856   -0.96842119223334
O           1.50798818434147   -3.11730933874411    1.20318083544823
H           1.18714002838067   -3.92851850252825    0.82217339356396
H           0.12313788232773   -1.37210271812323   -2.06290476476668
O           0.38001438644026    3.12927641896262   -0.32144267165849
H           0.25140322599015    3.76669744914350   -1.02430182488873
O          -0.23198192992465   -0.65026403191434   -2.63560008171415
H          -0.36488068424649   -1.03512782236891   -3.50326963721725
O          -1.58745918489300    1.95743859281107    1.01791367617365
H          -0.76914775065935    1.08913112684582    1.85229750253568
H          -0.92428908432545    2.49988139454053    0.53069119752935
O           1.59057110023862    1.04527472262718   -1.42521675398984
H           0.88960531061958    2.38056911352444   -0.72016404879614
H           1.73113602430697    0.40497978677202   -0.70743137534721
H           0.97465967711545    0.60478701940542   -2.03111507156559
O          -1.98708837611380   -0.16008125626225   -0.54831904490925
H          -1.63255572414862   -0.88825074943376   -0.01224587077028
H          -1.90599470162578    1.28354739655118    0.37325555204968
H          -1.50407795772494   -0.19482601491353   -1.38858142746474
N          -0.14056544179750    0.30144108552831    2.32229753065733
H           0.00448444299488    0.44672260182094    3.31475654885576
H           0.75035071509543    0.21713844569089    1.79398846005698
H          -0.58002154192365   -0.62054679976602    2.10343647468610
