    26
        -50.46596326  Gyration_radius:  2.52192052823 Dipole_moment: 2.171
 S           0.78557026104979    2.01236540422249    0.05554956042373
O           1.08487573233859    1.43459691099787    1.36388080603956
O          -0.53884247894747    1.63789279887435   -0.40530691756140
O           1.83981834646482    1.79279191012121   -0.90702688426238
O           0.71747243372825    3.58378935605980    0.28445797368276
H           1.63302944785519    3.84422785038636    0.27420672457857
H           1.93317367437310    0.28720344721223   -1.52789025018314
O          -2.16342899260973   -2.17230325265256   -0.79864967535972
H          -2.17026694731881   -2.97397781007258   -1.32223698460261
O           1.92164526611415   -0.65722026201917   -1.81614741023246
H           2.70033980169104   -0.78248020584066   -2.36073870595761
O          -1.03068937161319   -1.94949835089796    1.58988299798985
H          -1.49443813272573   -2.14546919657830    0.74256794099879
H          -1.29507360879519   -0.53355476412162    1.80160727823008
O           1.42573143478141   -1.23367857585352    0.84822631146536
H           1.63099322012947   -1.24803739480732   -0.09951821228701
H           1.46082062444877   -0.29889939146832    1.10949374632356
H          -0.07393537418764   -1.88713112840715    1.36197999133781
O          -0.80514389967482   -0.38193390615265   -2.20441281555802
H          -1.71295809135529   -1.48698652189835   -1.35249055307970
H          -0.81208378111145    0.43475638986202   -1.67720569629515
H           0.12751165546867   -0.64551816245757   -2.23799402650719
N          -1.32833980284358    0.57711487905442    1.84489383257090
H          -1.46206985248179    0.95098190000453    0.88450608649502
H          -0.35929367756280    0.91091324228893    2.04631704473463
H          -2.01441786720871    0.93005485415183    2.50204782701570
