    26
        -50.46596312  Gyration_radius:  2.522078761 Dipole_moment: 2.178
 S          -1.90285131684443   -0.93633343286913   -0.41677236622087
O          -0.98434121989136   -0.41871768168832   -1.41419801866786
O          -2.16512691708498    0.04344673418976    0.63527991606633
O          -1.55120129129187   -2.23629744147209    0.10527587443847
O          -3.28350364275625   -1.12631376542582   -1.18113011961329
H          -3.75817290412256   -1.73366893742772   -0.62256317063542
H          -0.03828688400785   -2.38001086918888    0.69800818559934
O           0.88109467340169   -2.35125170146091    1.05724043530018
H           1.02791575942759   -3.19367242135694    1.49018184414589
O           2.80652477168825    1.21093079525101   -0.84107000832128
H           3.72066894590541    1.01460945878834   -0.63411455845763
O           1.10598281881073    2.32849193479541    0.86061796679487
H          -0.08117822960449    2.28059193898003    0.01940017321789
H           1.82195606818272    1.99894174979769    0.26858926258277
O           1.63849990486335   -1.12318010910391   -1.30465438988754
H           2.38751616862376    0.34651167020858   -1.07856766500897
H           1.59999211097094   -1.62777206034404   -0.47736178199319
H           0.71070484848912   -0.92453435480447   -1.51618146705696
O           0.17568542772346    0.13615000260262    2.05418382116300
H          -0.72917536280981    0.07509494859717    1.70652974463765
H           0.59785999138403   -0.70877673274562    1.83409387624328
H           0.89015210727803    1.57758676968883    1.46126630489107
N          -1.00240475889280    2.04685689186083   -0.55793478473892
H          -1.41886133799205    2.86274770568387   -0.99149102311548
H          -1.65581293183255    1.54702615181914    0.08572602851631
H          -0.79363679962124    1.29154275564081   -1.24035404985633
