    26
        -50.47416536  Gyration_radius:  2.42042456834 Dipole_moment: 2.132
 S           0.17672298239199   -0.51823543731094    1.92372678799427
O           1.19540357411817    0.46987914251584    1.61882719503256
O           0.23242330480573   -1.66458100232554    1.03310766988137
O          -1.14721708622578    0.07684286866456    2.01400521852782
O           0.49011411320745   -1.08891230006140    3.36654471098626
H           0.13559100461961   -0.40803840565527    3.92758647284663
H          -1.00276412837335    1.59800145674378    1.37589246776662
O           1.20162723482274   -1.80326374761927   -1.39530433665354
H           1.51211981330831   -2.69679487613570   -1.54815313568356
O          -0.62152255488054    2.41104662264695    0.97487167104464
H           0.28931462952470    2.39403063259344    1.29191802717275
O          -1.14968334228724   -0.56495621125403   -2.20018588500755
H          -1.71367427229624   -0.89893412078952   -1.46458609266444
H          -0.34034198774912   -1.10125090064026   -2.14898961027938
O           2.22832695929522    0.68269950445482   -0.82488657080784
H           2.12333958656603   -0.22138569268067   -1.16402463792196
H           0.92797150671421    1.41226177800721   -1.36248797728854
H           2.00233803671956    0.62065775145006    0.12820208596920
O          -2.24721529442860   -1.47700692245419    0.05254832308038
H           0.86989965829473   -1.78531713751202   -0.46579769602757
H          -1.39033682032205   -1.76967940222386    0.41250649420744
H          -2.52513641732551   -0.79715507297677    0.67549340871806
N          -0.07553356820274    1.73132967745439   -1.53534740842873
H          -0.61698378163255    0.86276305166379   -1.84646806762727
H          -0.12115321224968    2.46152070706098   -2.23666043647793
H          -0.43362994844275    2.07447800648347   -0.60233869838701
