    26
        -50.47416779  Gyration_radius:  2.42064282538 Dipole_moment: 2.075
 S          -0.17859046704070    0.34583384383178   -1.96276213203754
O          -0.32236337110489   -1.07934783296641   -1.72981219670959
O           1.06059509750864    0.87310983555261   -1.41751056861672
O          -1.35560525904225    1.08777657116189   -1.53870735560204
O          -0.07985941155286    0.56310064796228   -3.52774761307043
H          -0.99621954175849    0.56763834170206   -3.78133636561003
H          -2.24812663414186    0.03170721811174   -0.62696850575888
O          -2.54982184114792   -0.78451792053422   -0.16894747328011
H          -2.18404534073156   -1.48383405494492   -0.72345589993838
O           2.51845247464646   -0.08061980348139    0.53702711969586
H           3.43153562354495    0.16547390376486    0.38269183583553
O           0.62941835208386    1.03565799830525    2.23830670758750
H           1.44553807842773    0.69226640273467    1.83672059909198
H           0.34260897494054    1.75926969545467    1.63438486876538
O           0.89679652465692   -2.28816987067507    0.30402885748214
H           1.67073523453182   -1.71656572840508    0.43720375859664
H          -0.15220790899906   -1.70463346659199    1.33876261850605
H           0.49495661392784   -1.97394828527143   -0.53440152447814
O          -0.01390016373919    2.67633365696430    0.23684912502706
H           2.00749490144005    0.27215980712763   -0.23042827048156
H           0.52733419118354    2.18517191606793   -0.40759800541703
H          -0.90829048125084    2.57367117733223   -0.10511155599560
N          -0.85509054873841   -1.09000060780281    1.85546340436009
H          -1.63474894304822   -0.90241283877890    1.16758635949921
H          -0.34148917912216   -0.18236281875230    2.09385777809673
H          -1.20510696546211   -1.54275779780303    2.69190442444264
