    26
        -50.47416416  Gyration_radius:  2.42034507617 Dipole_moment: 2.164
 S          -1.35186740943849    0.79732518506686    1.23845944290647
O          -0.59591816940752   -0.27529457825528    1.86109299959036
O          -2.03410849384691    0.36754830425028    0.03142154457820
O          -0.56768079725511    2.00209550972060    1.01792831280577
O          -2.46417392594489    1.19475376968993    2.29225881472510
H          -2.72114926021858    2.05910199073348    1.99070615258668
H          -0.48837690960191    2.19431439194462   -0.62281345861310
O          -0.61803654692068    2.06154579378483   -1.58883911726944
H          -1.48182911442795    1.63446038068909   -1.62888184169788
O           0.39269292402036   -2.43315857530005    0.75563884629290
H           0.42573384110447   -3.12589817151351    1.41681675999401
O           2.41251503424369   -0.78518289850649   -0.20102883602936
H           2.36742252954103   -0.11584060223694    0.52062907136044
H           1.88928664814372   -1.53504951750886    0.12934015323350
O           1.80875681894916    0.89031868381696    1.78350319387395
H           1.46975691987115    1.74712548908010    1.50328427675149
H           1.00096282257261    0.39993320305462    2.02092043588627
H          -0.00800350913745   -1.64920155699775    1.20194213041458
O          -1.13685870441057   -1.68606202396035   -1.40398851403799
H          -1.61552762756004   -0.99420018638896   -0.89847369491722
H           0.03675271695896   -0.81143135432326   -2.01241127173025
H          -0.68254409028148   -2.21682064219628   -0.72932767426181
N           0.81708781130110   -0.09960040093177   -2.16390981943742
H           1.20841312168467   -0.16515645002480   -3.09647438636227
H           1.55755186407064   -0.30331021264245   -1.41916679858763
H           0.37914149595086    0.84768444890103   -1.99862673206595
