    26
        -50.46596317  Gyration_radius:  2.52197610164 Dipole_moment: 2.176
 S          -0.01082534955126   -0.21979295672796    2.14984797031778
O           0.38034999963176    1.16502079811656    1.89545197887647
O           0.61635513972630   -1.13445727928430    1.21353725888523
O          -1.44008423561774   -0.38192624133791    2.28037044074282
O           0.60658954587785   -0.58751532802315    3.56764667316143
H          -0.01957190652566   -0.21423211261395    4.17983098909731
H          -2.29140647210179   -0.33518151450116    0.88948838285222
O          -2.71217980837885   -0.26075618384079   -0.00072979021736
H          -3.65902903876653   -0.25936617789256    0.14783804325574
O           0.56763625256896   -1.01698915969880   -2.94684811763952
H           0.04001626412030   -1.17179718649350   -3.73079208856718
O           1.19038955504778    1.38651785278392   -2.01235891081715
H           1.90372545582580    0.95598913069463   -0.81845601147728
H           0.98496835341852    0.54086258691551   -2.47504456629675
O          -0.80196959627737   -2.04007523483038   -0.92086983513626
H          -1.60049605659533   -1.50881905627931   -0.77744485829638
H           0.08686057773870   -1.45641188757244   -2.20186922951535
H          -0.26042821965112   -1.89132295082855   -0.12741459602282
O          -0.91399636855326    1.80261687691871   -0.43274781182541
H           0.34790797535243    1.66846377074196   -1.58584099079830
H          -1.63547303578558    1.15533350999629   -0.46540219186959
H          -0.52969428991703    1.72157278704026    0.45555230918442
N           2.25843856080664    0.60907713739720    0.17669897303485
H           1.89239682422962   -0.34730582610344    0.35385647458296
H           1.73527207940494    1.15038757039322    0.90068804745375
H           3.26424779395376    0.67010705501138    0.28501146704176
