    26
        -50.47416753  Gyration_radius:  2.42064421858 Dipole_moment: 2.081
 S          -0.59638950644679    0.50207810628116    1.84290255833870
O          -1.52747738346096    1.07022037738557    0.88558383458764
O           0.77719400015238    0.89464738271999    1.57844195761490
O          -0.76761714104300   -0.93574627967341    1.98071945739525
O          -0.94544800020265    1.11036415361743    3.26214039646591
H          -1.65899395467162    0.54882900924399    3.54420981422975
H          -1.72821111040085   -1.39753478846388    0.71299461014725
O           1.84888798206289    1.65839080153659   -0.68517597413042
H           2.57197366260968    2.25674817753292   -0.49216476808708
O          -2.29486493783661   -1.36763588686615   -0.09008867367206
H          -2.69257723135770   -0.49069159557536   -0.03386639438101
O           1.88810813969644   -1.03529992695541   -1.35754168790519
H           2.07883820216797   -0.08594075480773   -1.27054299233764
H           1.94395180589589   -1.38347204717518   -0.43761716452994
O          -0.75359662228586    1.76465627753792   -1.56451263705048
H          -1.12229986120400    1.65135532841230   -0.66207010754466
H           0.18642428967918    1.96525547395219   -1.42468689235945
H          -0.72300060564310    0.25110015962325   -2.03336502683804
O           1.79502272402828   -1.55572958386209    1.25622704826792
H           1.61758273886521   -0.62586400634125    1.48725838977081
H           1.00059555120665   -2.01090748273277    1.55472558299242
H           1.45609905862347    1.41520780134941    0.18720327358548
N          -0.62159220427122   -0.81025997093465   -2.07825681900993
H          -0.85290873917913   -1.17037581872075   -2.99691400161855
H          -1.27470662331326   -1.19383192060724   -1.34165762345765
H           0.39500578630784   -1.02556295647438   -1.82394614048226
