    26
        -50.47416202  Gyration_radius:  2.42037031307 Dipole_moment: 2.199
 S          -0.00345504050891   -1.89054037276630   -0.65206029024594
O          -1.29614060540096   -1.61054500477801   -0.05346586527294
O           1.09933706947445   -1.61845004667623    0.25324297575946
O           0.14373879135914   -1.24767710003806   -1.94801950423904
O           0.05714366059574   -3.44731022300472   -0.93165156774231
H          -0.48498002322864   -3.52969665330985   -1.70834231039858
H          -1.09495828448856   -0.15610225017234   -2.05509402323430
O          -1.89935151478465    0.36976946330537   -1.84539362915762
H          -2.40494015854565   -0.23273267993111   -1.28718865841684
O           1.17251742936504    0.01898331322648    2.29476658623467
H           1.79812717696832   -0.32137848675840    2.93579957339905
O           1.46310755785678    2.04237854369782    0.41511083269972
H           1.49802052764146    1.49178236224921    1.21561206963251
H           1.89381548136707    1.49381654918489   -0.28081309897735
O           2.37180461227937    0.17957655257876   -1.26260093513944
H           2.12111881094044   -0.55125444078160   -0.66898368128576
H           1.82350184425848    0.02765596962799   -2.03964284070384
H           1.15482218708507   -0.63609200073035    1.55659928548496
O          -1.54710562095357    0.15996032551917    1.91805675725766
H          -1.55552062834582   -0.58537523738905    1.27949453237122
H          -0.66923942169345    0.12202023121173    2.33201639041965
H          -1.40731717790210    1.37664931421713    0.91163817803975
N          -1.13825808611041    2.01333657707100    0.09872548470788
H          -0.07499947921190    2.12312872102339    0.14273534100390
H          -1.60150375530948    2.91279299417445    0.15771014044017
H          -1.41928535270596    1.49530357928979   -0.77825174264007
