    26
        -50.47250302  Gyration_radius:  2.48717695856 Dipole_moment: 2.883
 S           0.14466572840856   -2.14536762685709    0.72119047683817
O           1.15104323066296   -1.24247432996222    0.19621247258285
O          -0.93934111298290   -2.36463151786168   -0.22868451244243
O          -0.34827538872530   -1.76352269037145    2.03070424144897
O           0.86379290792525   -3.54399823235120    0.91177999267759
H           0.19915810822653   -4.02606667960675    1.39165743468760
H          -0.91857831743758   -0.27565263924392    2.05989952694042
O           1.09397702297673    2.42891588991217   -0.70175062317307
H           1.59994021689608    3.24161397848818   -0.70020211532544
O          -1.21075513799217    0.67329974974231    2.07597661228857
H          -1.84173432180486    0.74266894638467    2.79389875909626
O           1.45809165836731    0.09838546912172   -2.12662424928504
H           1.46423032490940    1.00399672722618   -1.76598249292332
H           1.59980114253905   -0.47809813731419   -1.35305454115876
O           1.48143662933008    1.07262397520403    1.48790084348512
H           1.50816185425360    0.17171464062926    1.10733028276577
H           1.30996819580364    1.95912519188179    0.15570762801339
H           0.62578343243569    1.11841554627891    1.93918688542544
O          -1.55556064516157    1.73056552280260   -0.42090749080044
H          -1.43475725033640    0.45387954035792   -1.37094790065116
H          -1.52740606972024    1.39351546139077    0.49453766749423
H          -0.69109029101533    2.15630923315567   -0.56427087867624
N          -1.11551744971236   -0.39389769080331   -1.92595045594369
H          -0.10320834227533   -0.21495997392801   -2.20289998522340
H          -1.70911213141482   -0.56416176522450   -2.72936369255816
H          -1.10471397415349   -1.23219858905262   -1.27534388558360
