    26
        -50.47416638  Gyration_radius:  2.42058232043 Dipole_moment: 2.110
 S          -1.07203011035015    1.43621971792013    0.88841174545569
O          -1.97483422881010    0.37701667273136    0.47660356182770
O          -0.27239363310395    1.94230172598237   -0.21374951706925
O          -0.27982973632718    1.05462855933417    2.04696740465140
O          -1.96070950707588    2.65775758842258    1.36148208673646
H          -2.18761031081565    2.40229615447570    2.24877991913982
H          -0.47887959542623   -0.58001723720979    2.20846156062683
O          -0.78249131320874   -1.50491604485707    2.06763845186004
H          -1.66062738037208   -1.38282575624861    1.68797962419493
O           0.39370442857451    0.73432724985446   -2.43936966983760
H           0.50712846979558    1.39665475962052   -3.12248485722906
O           2.29542110278858   -0.60264216420784   -0.92099574723584
H           2.41251129189506    0.09837426059348   -0.23864065015263
H           1.80069044750464   -0.16693647312283   -1.63558391058674
O          -1.45233373259233   -1.14258960974552   -1.64477184399388
H          -1.79875914818187   -0.57829433582829   -0.92029521983179
H          -0.91380604180226   -0.54485941533167   -2.18882045087344
H          -0.36147578755255   -1.96745991511527   -0.84373147323124
O           2.13614110496068    1.41290898210742    0.81760147916599
H           1.79932964806063    1.17610120879259    1.68817615422576
H           0.11858289765599    1.22413382746987   -1.62773432461407
H           1.35794612698569    1.79943698765975    0.37656590025189
N           0.41533099284024   -2.27033944123422   -0.17777442905009
H           1.26432462279764   -1.66270956047261   -0.41117608854164
H           0.63190410496837   -3.25532586575129   -0.27782994660047
H           0.06276526682210   -2.05324186585541    0.79429023069584
