    26
        -50.43916284  Gyration_radius:  2.4915510057 Dipole_moment: 2.428
 S           1.33112498981155   -1.23771752814026   -0.68192325842594
O           1.82510565788091   -0.66721649336371    0.53181424241780
O           0.23827373112554   -0.59075049577973   -1.33664855131436
O           0.97490571826622   -2.70892234952011   -0.45301596784713
O           2.52508670236983   -1.32770053576895   -1.69255661228865
H           3.34103082944854   -1.30380338471684   -1.19700022661247
H          -0.05046378191665   -2.80471491582359   -0.50739252692113
O          -0.37239466359181    2.73441036360341    0.79630955320204
H          -0.59658871816496    3.48274333218620    1.35040675742875
O          -2.13085851780456   -0.78679420933996    1.18794998122543
H          -3.00545666615803   -0.76698425639653    1.58026788552515
O          -1.53488774900184   -2.64620865321734   -0.61684460810057
H          -1.78740696251246   -2.06494188364672    0.14285853710048
H          -1.61628201038030   -2.09278567502996   -1.40051587535490
O           0.09269278542432    0.56016110285838    2.27300474058410
H          -0.12531253005798    1.99818269473745    1.40674614354249
H          -0.67817936918591    0.00079786990140    2.09262600033672
H           0.82906159788317    0.14411172303529    1.79976460502037
O          -1.87386639649605    1.02437240487231   -0.64521424448456
H          -2.10814535697919   -0.05045038797586    0.50118783461297
H          -1.43864719843698    1.78466995826154   -0.20713593775375
H          -1.15600322795953    0.57497665247008   -1.11477514260448
N           2.04965309589913    1.83083522785389   -1.07000002534015
H           1.32995625631972    2.44707428703694   -0.70519792881028
H           2.33916040528733    1.24706639017132   -0.29490288902232
H           1.59844138892444    1.21958877174068   -1.73981246610290
