    26
        -50.43974050  Gyration_radius:  2.43005485188 Dipole_moment: 3.737
 S           0.00850774356262    0.13869435162690   -1.79842846788769
O          -1.23083501209417    0.20602876535535   -1.06682315736899
O           1.03608764661645   -0.65177143304501   -1.12637750881369
O           0.53001965819876    1.44841235425160   -2.16832444688394
O          -0.29945144042949   -0.60436299850560   -3.16543001684490
H           0.39832155840398   -0.31085904123832   -3.74385027876907
H           0.94231444649904    2.14905168292585   -0.84501081686940
O           1.22328085808924    2.49587467257933    0.05450006907051
H           1.96708622689829    3.07944751142705   -0.10944456809435
O          -0.39635060832357    0.32118492863404    2.72110170315616
H          -0.25203874624429    0.80053149597900    3.53793984072072
O           0.25820017327247   -2.13805949552073    1.54014384002788
H          -0.12695780474208   -2.42773773370005    0.69295409726207
H          -0.47926464652087   -1.83234442317351    2.07254059339644
O           1.61810537188560    0.19124713004475    1.13654985163981
H           1.52588303116775    1.15394466918224    0.83017020609255
H           0.85587640629946   -0.00444891608674    1.79960473981473
H           1.40396289558251   -0.35357540934678    0.26818750927544
O          -1.42812188526742    1.94262005800227    0.94555079243015
H          -0.91449861519674    0.91955174057016    2.11798477201371
H          -0.69934318848982    2.51957789176505    0.68985153210683
H          -1.54257908622539    1.32586035978602    0.19477729165554
N          -1.03672325271364   -2.66361711089840   -0.88219125572295
H          -0.23650217766932   -2.73540595602155   -1.49810388995293
H          -1.36029223140583   -1.70405518251832   -0.95088143283317
H          -1.76468733112025   -3.26578989214595   -1.24699099858423
