    26
        -50.44962123  Gyration_radius:  2.52249161296 Dipole_moment: 3.550
 S          -0.43268371272557   -1.00703447979478   -0.79068417386827
O          -1.87091933350469   -0.85325059062688   -0.68868369427322
O           0.21595155976251   -1.06358186885077    0.50941480023274
O           0.16801395364693    0.05125868463861   -1.61290386649003
O          -0.11573569639468   -2.36748202611931   -1.49412943897084
H          -0.58743620054693   -2.28080440328782   -2.35595736814624
H           0.52639223890735    1.24732435235894   -0.77936020571639
O           0.74714457253995    2.06890172502623   -0.22099310618958
H           1.29974629263959    2.61751656987324   -0.78103120875665
O          -0.32074950526819    0.66548266314716    3.14050107153331
H          -0.65804338756455    1.32793513017442    3.74733437198797
O           2.64752853383801   -1.01893152476316    1.18185575343728
H           2.72564239274044   -1.67656780472582    1.87632295485345
H           1.73558123599784   -1.15829203425156    0.78301035813342
O           1.81069532293733    1.22854756149458    1.93520549868227
H           0.96273298225405    0.97368820644795    2.49821160259932
H           2.25458541025688    0.31819954401021    1.67124554005206
H           1.42164422454942    1.59650516297495    1.05571838993654
O          -1.74175617923867    1.15980046091417    1.01830092781055
H          -0.92602148219389    0.68823692040067    2.34264815745577
H          -1.14638891678010    1.72234087806034    0.51071393620247
H          -1.91356745698978    0.37869382000679    0.44860871873660
N          -1.56501627011483   -1.38506109880522   -3.45134750421887
H          -2.08804022828524   -1.48074327239792   -4.31318215467545
H          -0.94075027406115   -0.59052860087801   -3.53368997623999
H          -2.20855007641518   -1.16215396504450   -2.69712937412764
