    26
        -50.46760080  Gyration_radius:  2.41450089491 Dipole_moment: 4.169
 S           0.26422614438871    1.58166548002118    0.85008108849306
O          -0.81580404356899    0.66015864248720    0.59731475672727
O           1.44196252525024    1.25272900502305    0.04146205532463
O           0.58128123945544    1.78288569213571    2.24248745611473
O          -0.23825598282352    2.99168258662341    0.30435875781384
H           0.26737753882206    3.60668769256826    0.82496970505163
H           0.28126580608041    0.27081351144505    2.89200290075270
O          -1.90382818223847    0.88087932165859   -1.85695559463208
H          -1.59056697321866    1.08819734506383   -0.95877089280971
O           0.29176496634976   -0.66881993616369    3.17392869018003
H           0.75519929515378   -0.68726969092489    4.01398442522127
O           1.63511885950643   -1.25906164687766    0.94169460482459
H           1.13727112442315   -1.21485392338986    1.78747186188868
H           1.73584159850604   -0.32884855830323    0.66276055696789
O          -2.34402132439104   -1.36923439331546   -0.43597222815370
H          -0.89906253847774   -1.81234247423806   -0.81977625329917
H          -2.12353735174625   -0.88307382920818    0.37045093954896
H          -2.47323322147619   -0.65609183509797   -1.09704425387495
O           0.86094365060011    0.37199819184318   -2.32588961219713
H          -1.09824536871287    0.81620362757495   -2.38260453681102
H           1.06110775522671    0.76192475341727   -1.43217219523062
H           1.61961780462498    0.57836653647810   -2.87395712980232
N           0.13234883323135   -1.94398006337744   -1.08497978514917
H           0.39081826829772   -1.17984136862368   -1.74008132890659
H           0.30264218461009   -2.85790794732538   -1.48872670720724
H           0.72776741212721   -1.78286673948084   -0.20603729081822
