    26
        -50.46760086  Gyration_radius:  2.41450857081 Dipole_moment: 4.172
 S          -1.24325102167832   -1.05625504330937   -0.79760601690443
O          -1.16092402049520    0.26194650535251   -0.21847202866001
O          -0.04472601819894   -1.84431485528016   -0.49467695225596
O          -1.59306645631597   -1.08711095075213   -2.19637562076244
O          -2.43163220602894   -1.78840627985593   -0.02967597373357
H          -2.71827598643990   -2.43778632631900   -0.66295565924108
H          -0.85630874463494    0.29929404994520   -2.77277235423326
O          -0.24184002888894    0.99523555706730   -3.09009640569897
H          -0.18549016768371    0.88393166983391   -4.04150716504133
O          -1.28320615988876    0.29431072648904    2.47274610232285
H          -1.50159893691144    0.14644228245002    1.53559942024693
O           1.65890852899063   -0.06833854890830   -1.54409563967079
H           1.07717027899844    0.44770646843368   -2.14452332358430
H           1.11799798520845   -0.83332524573292   -1.26942068815107
O          -0.31507334063147    2.45893248356053    1.18553427586356
H          -0.72676401983580    1.91278322752353    1.88856786583045
H           1.01095884838913    1.66253177363225    0.98805335820868
H          -0.76774448196685    2.16176824485724    0.38414528146601
O           0.92883792621737   -1.39717683632998    1.86562579624960
H          -0.58792780796371   -0.34650366494251    2.66090313728395
H           0.50756301057750   -1.59148933334804    0.98494555059306
H           1.40325315125294   -2.19422755633089    2.10681569187403
N           1.81956132387111    0.97090510309892    0.84918860900977
H           2.71058305737038    1.37787539633347    1.10946251356900
H           1.81516078808470    0.65137154084422   -0.17607064459774
H           1.60783448860301    0.11989962169501    1.40666087002268
