    26
        -50.45996615  Gyration_radius:  2.46166940352 Dipole_moment: 6.432
 S           0.23819387728326   -2.06731702972046    0.07988497534644
O          -0.87368837808531   -1.78209396577031    0.95917520960048
O           1.41222737700223   -1.25217353649112    0.38903113765172
O          -0.09214991305463   -2.00662982143712   -1.33054400692989
O           0.66431880927830   -3.56236485636136    0.36921551209160
H           1.22629555792671   -3.74039590103038   -0.37654330994857
H          -0.93162016721382   -0.75901885155081   -1.88696522906137
O          -1.46161185709472    0.02493554932997   -2.18394300039106
H          -2.16632220868290   -0.32983001117123   -2.72839491859991
O          -0.09398524633738    1.70622756980683    1.94698155008687
H           0.07797491815595    0.93545976831139    2.54331211380897
O           0.48026862334343   -0.67245869797382    2.96856263328362
H          -0.13260434620225   -1.16324416349252    2.38782217433183
H           1.35192021938603   -0.86777770263784    2.61194106765887
O           1.61941047275061    1.26674641521821    0.22315570835176
H           1.60031525189436    0.25205225672126    0.23587163307591
H           1.19888490928853    1.59005087021584   -0.69039872740976
H           0.90820068283085    1.54905367540193    1.00709827491661
O          -1.98561239728798    0.61814189796313    0.46546654806906
H          -1.76873102780038   -0.29281854932595    0.73511128238207
H          -0.91193870101164    1.45583452104481    1.44820725405290
H          -1.92507043294028    0.60617197185324   -0.50277466503331
N           0.52735165159423    2.05542882667801   -1.94791138935145
H          -0.20165876182181    1.37155696620684   -2.15466018643686
H           1.15169954533270    2.10539046821000   -2.74233198336882
H           0.08793153147642    2.95907231999681   -1.82636965817338
