    26
        -50.45996586  Gyration_radius:  2.46142182578 Dipole_moment: 6.433
 S          -1.09907613639305    1.40650194237503    1.06959716619436
O          -1.83718017048163    0.57227917210504    0.12209861845459
O          -0.04405559647881    2.16029984347835    0.42973053613956
O          -0.66445867782308    0.64154173907637    2.22204133609416
O          -2.14027926463376    2.46670015362914    1.61031653994197
H          -2.66930027237887    1.92739329847483    2.18727096623595
H           0.66856239367079   -0.24247341833464    2.11915894259200
O           1.50398169351467   -0.76659356761408    2.01310402905650
H           2.03187420104961   -0.57259974055536    2.78936852417878
O           0.65753284687973    0.00687914157736   -2.50592689541015
H           0.12787129420184    0.84013261619240   -2.57419485084665
O          -0.95051741256973    2.07032474343139   -2.07473928130156
H          -0.56121757562592    2.30040573397586   -1.20913502310162
H          -1.79205786615541    1.65993960729138   -1.85450369067235
O          -0.93888095989599   -1.37557646093581   -1.22536866575676
H          -0.35254114791514   -1.99002151140823   -0.59720903314250
H          -1.35447568681838   -0.64812895950903   -0.65261733334276
H          -0.23834300099277   -0.83073611135382   -1.86820561770674
O           2.01994240764485    0.60866719027007   -0.32925281390014
H           1.32879069884010    0.19711853008570   -1.80324068089142
H           1.41565450936648    1.32637073572023   -0.06601813576332
H           2.03665198283642    0.01188492195814    0.43551250162177
N           0.54496427881589   -2.81513698646244    0.27617412878407
H           1.31347912692590   -3.21559572933420   -0.24668420876706
H           0.06110168322768   -3.56092266346386    0.75874876592872
H           0.93197661118805   -2.17865420067567    0.97397417538199
