    26
        -50.45996570  Gyration_radius:  2.46202769857 Dipole_moment: 6.420
 S           0.40265124212716   -2.03546003361053    0.19866738238745
O          -0.50513282177519   -1.72524944554397    1.28071908036266
O           1.54666633207731   -1.12585230389091    0.15850051556289
O          -0.23633325188851   -2.14185892383479   -1.09848103370645
O           0.99991707545799   -3.46560451431361    0.51286495857887
H           1.37330170498275   -3.69803951053382   -0.32984574622742
H          -1.26188165796888   -0.99926969704799   -1.56048479979475
O          -1.89900149462479   -0.27719358868938   -1.79780268321131
H          -2.67853964971376   -0.72055078628203   -2.13633138447444
O           0.21588389249260    1.88277798132039    1.77012213478816
H           0.57187028152888    1.18259036173469    2.37228873701679
O           1.17499115464015   -0.35158997799444    2.82689366783933
H           0.48665165114724   -0.92919650925943    2.44442265939391
H           1.95777336907571   -0.53404272456974    2.29868505467950
O           1.52994741031793    1.37267018499542   -0.25805568714306
H           1.58780489959992    0.36453920414052   -0.15797490915062
H           0.89162228793372    1.58270891052681   -1.07340542695171
H           0.99355304079154    1.69076982233527    0.64253147846536
O          -1.86536265232315    0.55337157005889    0.84071367736288
H          -2.02029330415196    0.44644459756956   -0.11091872383193
H          -1.52909808205360   -0.31347488653686    1.13267593686253
H          -0.67020108279938    1.54165331523539    1.49026493163855
N          -0.07953742848610    1.88648547539436   -2.17455477902434
H          -0.77401103220412    1.13863836817072   -2.16054444884502
H           0.34519560693812    1.91028430816828   -3.09228627378772
H          -0.55843748111773    2.76444880247283   -2.01866429878758
