    26
        -50.45996628  Gyration_radius:  2.46172150966 Dipole_moment: 6.428
 S          -1.56780978922523   -0.44556798053685   -1.29822155389221
O          -1.60185163708070   -1.48548562862064   -0.29408568903633
O          -0.23793313953182   -0.28510488547237   -1.88472843757370
O          -2.10757993586552    0.82448295182423   -0.85369338877876
O          -2.50176616351057   -0.93342029312341   -2.47740288677780
H          -2.60640757898800   -0.12924556827368   -2.97333601446862
H          -1.64335264637046    1.41297708086613    0.56346282454054
O           1.94601351267410   -1.52111392990944    0.78917072937952
H           1.57038659987547   -2.20316665848693    0.17842875216814
O          -1.33836093969731    1.73187743167413    1.45176092285826
H          -2.13126316772143    2.00822098303480    1.91416579615718
O           0.56480545578131   -2.83845308870537   -1.05174318013374
H           0.71498740426515   -2.32989787808133   -1.85419225471133
H          -0.30805571262896   -2.53569515034941   -0.73517111028181
O          -0.30291285287829   -0.78279447027738    1.95478726807464
H          -0.57499108191619    0.14776695793652    1.98975687923237
H          -0.86911343573811   -1.17688515547624    1.26648022461280
H           1.19788692756065   -1.29292081290484    1.39605185517728
O           1.89195109626541    0.43534428065070   -0.71776893565141
H           2.01772583772797   -0.42089420793247   -0.04688888989625
H           1.04928362390483    0.21135055895017   -1.23686809812070
H           1.68260969547503    1.26817834045556   -0.10148400229749
N           1.36500815467461    2.39529763620274    0.83346840288548
H           1.92965805698439    2.35685875497862    1.67258311031656
H           0.38707320419115    2.27914127901411    1.10181958910291
H           1.47400850177731    3.30914944256068    0.41364809710732
