    26
        -50.47398750  Gyration_radius:  2.43812549852 Dipole_moment: 2.201
 S          -0.79713220596673    1.68308404151303   -0.47990406229146
O           0.54608290771671    1.37914216005276   -0.93308621053302
O          -1.01540525354049    1.18031987419673    0.87542787967543
O          -1.84204884024461    1.28420930211341   -1.39388507230676
O          -0.88447332779191    3.26028288199816   -0.38556787711717
H          -1.81400175690771    3.38596491588188   -0.53776171659030
H          -1.82155448954324   -0.30107038988705   -1.80931961151255
O          -1.77725814285626   -1.27550705371678   -1.95406322672679
H          -2.41055627170369   -1.47466870395148   -2.64512948027119
O           0.68719096934739   -2.20512934923102    1.13960808242336
H           1.03267110410787   -0.87548401557710    1.75123669995368
O           2.91968814881566    1.14070043486702    0.22654836356571
H           2.13380364606996    1.42265314558002   -0.28533541704487
H           3.33250022381003    0.45173947203745   -0.30019704248254
O          -1.84040874421227   -1.43694262041616    0.82287629443603
H          -0.29673570596925   -2.14008663397623    1.14626834137970
H          -1.70652158145593   -0.47919019921300    0.91843379786526
H          -1.96583097346906   -1.58298846310516   -0.12769570276140
O           0.93957412088046   -1.26573415386347   -1.35045612995745
H           0.87091083595584   -0.29771953477962   -1.26744626892076
H           0.92470581303358   -2.03830446569995    0.19874351479505
H           0.09034022575366   -1.53211178646011   -1.73151251992292
N           1.15902172839201    0.17909355803956    2.00521237964112
H           1.26559364131203    0.32033707556721    3.00307697697978
H           0.29477837739051    0.65992101529403    1.64651149773766
H           1.97506554110745    0.55748948263106    1.46741650997573
