    26
        -50.47391988  Gyration_radius:  2.43970881753 Dipole_moment: 2.190
 S           1.80607020732378   -0.63423339413401   -0.26871698344232
O           1.15126997031652    0.14989180336754   -1.30435692729861
O           0.86301043237869   -1.54049271301368    0.37297684349530
O           2.56174390171808    0.15143487719887    0.67909629972563
O           2.86265290319209   -1.54165304741283   -1.02010645832539
H           3.50446401008020   -1.66023906014835   -0.32954189394579
H           1.66627216570339    1.17371149406053    1.59021436135848
O           1.05535693853254    1.77847412662675    2.07422997652821
H           1.59160935881189    2.24632352600194    2.71600904278387
O          -2.27764494273262    1.21149455178270   -0.17588979290842
H          -1.86470867221614    0.21284585603390   -1.22126848279553
O          -1.35629670802884   -2.77402005229819   -0.38521395434869
H          -1.90624363067387   -2.69341587958751    0.39812352693482
H          -0.45786507176976   -2.50721744013523   -0.09755187412071
O          -0.96630155312553   -0.10829677823108    1.74791070334289
H          -0.31618502235303   -0.68764923093269    1.30987390344925
H          -0.43564156584900    0.61004508845364    2.12133441082461
H          -2.00165314161957    0.73323323363569    0.63870421678260
O           0.03749030407559    2.50063469334566   -0.40561849824078
H           0.53746191118216    1.79291423813189   -0.84393436971515
H          -1.57131553072275    1.88950842679957   -0.29709275118960
H           0.34991245464136    2.49552036293426    0.51298982453579
N          -1.35248534274056   -0.52771956867877   -1.83960608560518
H          -0.33025109725863   -0.29912228464907   -1.75549680545036
H          -1.65521312736265   -0.49788772293402   -2.80616775932505
H          -1.49550914154265   -1.47408511629432   -1.41090048307205
