    26
        -50.47398754  Gyration_radius:  2.43810412943 Dipole_moment: 2.200
 S          -0.74595649841331    1.33289990646019    1.16955874189269
O           0.32995930517207    1.73575662984128    0.26540377733583
O          -0.52161560195491   -0.00797089898469    1.67346980874292
O          -2.05650295779466    1.54784107954258    0.60173626515160
O          -0.65482120713274    2.29579345153755    2.42202947010998
H          -1.22327918639121    3.00042582644862    2.13320625836217
H          -2.46343901778410    0.50648707068228   -0.59658282226443
O          -2.60097213366320   -0.11439864379478   -1.35026954436883
H          -3.51371215797928   -0.00972217893543   -1.62269969132859
O           1.25917426903028   -1.28444086329233   -1.84439514881500
H           2.00320987275896   -0.58291201524023   -0.74157994016479
O           1.61281496417895   -1.46993238060486    2.25992141154786
H           1.32145633036685   -2.35448966569697    2.02491102953641
H           0.80004213379397   -0.92376185879037    2.27149444908908
O          -0.78509661914090   -1.90668552280826   -0.23712737438975
H           0.54832675109229   -1.72891591391687   -1.32827559534175
H          -0.71454099418468   -1.29434079064379    0.51698651529331
H          -1.53080296392472   -1.56500298520585   -0.75133293073332
O          -0.19002476832618    0.90019167842165   -2.29692519774604
H           0.80188349084537   -0.51206111374052   -2.25287831046171
H          -1.09100501142798    0.55184060488387   -2.20927430459869
H          -0.01189050273390    1.36042285348065   -1.45980473593721
N           2.31968649209268   -0.00458036417109    0.12897044951657
H           3.25359467616600    0.37253345186669    0.01672142051633
H           2.24271027923433   -0.61159401312936    0.97985045796866
H           1.61080104615714    0.76661665575267    0.22688554105563
