    26
        -50.47250283  Gyration_radius:  2.48715815617 Dipole_moment: 2.885
 S           1.67037120054535   -0.35848678470785   -1.49181513438955
O           0.64168213835310   -1.09639705798067   -2.21486570842804
O           1.59758805516722   -0.58738755365228   -0.06146860127916
O           1.68776855799303    1.04616619602349   -1.85245431982856
O           3.06178458145461   -0.95199232671369   -1.96258987283141
H           3.10075831671705   -0.63627089185938   -2.85883780274675
H           0.43822629314456    1.83928545462162   -1.26098731204984
O          -0.31133587821011    2.33028732020728   -0.83300642402366
H          -0.47039152954221    3.09918482772073   -1.38245162409181
O          -0.98362448601395    0.28789573374280    2.55848122392739
H          -1.11437537465006    0.56756291567025    3.46467213436786
O           0.00860031432194   -2.07221067789996    1.53749104855950
H           0.78080332937083   -1.67857718501446    1.09074100289373
H          -0.36016727591550   -1.35034007420588    2.07881752190964
O           1.03225062072197    1.52756338635243    1.46994018852409
H           1.41187642940153    0.78417033279354    0.95966424534752
H           0.61922586565941    2.09286503963588    0.80083815663568
H          -0.18630973077792    0.78959552052712    2.21942575529616
O          -2.25924807324718    0.68313623125375    0.14927920049564
H          -1.84462802712074   -0.74499062389739   -0.43030979120027
H          -1.98155942637420    0.59831911582620    1.07920418233012
H          -1.64141191077041    1.32690585460741   -0.24603008864223
N          -1.37232114675922   -1.66801989344455   -0.66171374162323
H          -0.59010752521851   -1.47657406071649   -1.35285437936536
H          -2.02867305700327   -2.34491155846944   -1.03298588623325
H          -0.90678228125314   -2.00677924041908    0.23381603644942
