    26
        -50.45996601  Gyration_radius:  2.46182289451 Dipole_moment: 6.427
 S           1.37054784956001   -1.29217976065736   -0.88944956445303
O           0.44810392066103   -0.93755454277310   -1.94508653629836
O           0.68308363934830   -1.77135103578284    0.30873007009524
O           2.33162741699751   -0.25465579421823   -0.56992201641001
O           2.21060882716402   -2.52052303593935   -1.42454839772868
H           2.92907133747786   -2.53650002268155   -0.80233566384350
H           1.82044130311257    1.25158418339795   -0.36909612187261
O           1.46052500095806    2.17008196188445   -0.26633901875009
H           2.04141870709261    2.73467642565276   -0.77887874284904
O          -2.58835792087576   -0.14253302588006    0.03320312397185
H          -2.48030391235969   -0.99712940545082   -0.45412570504834
O          -1.66035898913163   -2.34243377602576   -1.11970775616099
H          -0.95242123342355   -1.88649020352105   -1.61443769825332
H          -1.19836963351933   -2.79431959088317   -0.40737337122136
O          -0.91576920806156    1.31541625426949   -1.39440291198999
H          -2.12013969227980    0.52414958691708   -0.52924848032044
H          -0.19752308511649    1.81886803022804   -0.97984532111775
H          -0.47443165326594    0.54320633447211   -1.79264603789481
O          -0.89842898482024   -0.47505908377425    1.80363701146386
H          -0.48959101089846    0.48055292245503    1.99397599309254
H          -1.71809010171484   -0.32360591347816    1.09310949910945
H          -0.21672885851831   -1.00722372010447    1.27268890029216
N           0.05135598337684    1.86426694728194    2.19431477445722
H           0.61636224623868    2.07482758358595    1.37080993445913
H           0.63720750912691    1.95282127187559    3.01423375785862
H          -0.68983948713199    2.55110743915548    2.25274026941248
