    26
        -50.47392066  Gyration_radius:  2.44011316314 Dipole_moment: 2.170
 S          -0.62433128093195    1.63092924020575    0.82987312428497
O          -1.55143123126200    0.92759728523022   -0.04630903636056
O           0.73631365569777    1.54643203174857    0.32145216032351
O          -0.76173307174862    1.24862616509984    2.21616018416473
O          -1.01457308112375    3.16327122935223    0.76399260338267
H          -1.62638038589067    3.21207888127251    1.48933767204838
H          -0.40604549021583   -0.31719026046829    2.53253127167874
O          -0.14841108791221   -1.26367404080396    2.63699675410478
H          -0.29581810883617   -1.48329640474866    3.55803688891720
O           1.42021774881179   -1.88677761615234   -1.05801374641836
H           1.25350693224503   -0.57032754902454   -1.76611098972817
O          -1.62002536399989    0.36297136956010   -2.63463645686414
H          -1.75665821829228    0.69140663189026   -1.72108329752014
H          -1.95858268525859   -0.53597354658924   -2.63286841127342
O          -1.01893386611744   -1.71824934563793    0.03143641830304
H          -0.80315350490154   -1.86356279390597    0.96387367334748
H          -1.29332606795754   -0.78394962024747   -0.01139876208456
H           0.49660089006244   -2.03594032221243   -0.75311361445164
O           2.14036822683324   -0.65595206353873    1.18750637180880
H           1.50282007960724   -1.02420921507656    1.81938375077904
H           1.88756856341855   -1.58576280644369   -0.24305521719623
H           1.79493506926434    0.22481712113984    0.96845737714232
N           0.99511550000268    0.44537712192849   -2.07321970184373
H           0.03385755820236    0.43126748045237   -2.49245758532899
H           1.68040165249211    0.84202054778374   -2.70555447438378
H           0.93769758796736    0.99807046914637   -1.18121695686590
