    26
        -50.47398623  Gyration_radius:  2.43780825834 Dipole_moment: 2.225
 S           1.29049998062716    1.34552946366865    0.46898668563929
O           1.74965807033263    0.03363515316745    0.05715865871040
O           0.08027007910461    1.24294584864043    1.28331690869731
O           1.15295684612608    2.29751296926077   -0.60836676540224
O           2.41368909837812    1.92567657820941    1.42067255310525
H           2.26850809674281    2.85765520542444    1.30462656943808
H           0.18861637253981    1.80821418370053   -1.83952560923219
O          -0.45790599089680    1.46640904291510   -2.50107602200559
H          -0.43253463353521    2.07392469873976   -3.24172467228071
O          -2.09255569980475   -1.48141107884887   -0.23326221873445
H          -1.30921666262025   -1.44170547218377    1.04935659703393
O           1.69711775527528   -2.39632387281844    1.11818881718739
H           1.93925525157046   -1.51162946817705    0.77486770541617
H           1.60627776444447   -2.95430578688031    0.34182845547538
O          -2.15136324452273    1.17703182924447   -0.31295551665684
H          -1.77168728819208    1.34907927256893   -1.18876339954937
H          -2.36639624012450   -0.53566521353243   -0.28896533195109
H          -1.43125575474607    1.35086796866772    0.31603059897958
O           0.09726162231137   -1.14994800967343   -1.73031313565506
H          -1.36218822539514   -1.55091672134174   -0.88993512761223
H          -0.16920439350334   -0.39745124264929   -2.27809796711166
H           0.76600762237172   -0.78047002597028   -1.12625872901561
N          -0.60745244195945   -1.24661152663742    1.86316962518273
H           0.24827057926858   -1.83319330087192    1.71534111277353
H          -1.02428378036540   -1.40892074287463    2.77253887418783
H          -0.32234478348365   -0.23992974171285    1.75316134338377
