    26
        -50.44218272  Gyration_radius:  2.62694146019 Dipole_moment: 1.574
 S           0.01978625126534   -2.27676895701300    1.33196186053275
O          -0.78729027789234   -2.14073507441662    0.16155152345044
O          -0.30576066804015   -1.46806730976143    2.46240759702169
O           1.49291888061493   -2.10564085905428    0.98184971063879
O          -0.07435676816034   -3.78440255256807    1.78839598417845
H           0.22201644373655   -3.81693607937594    2.69529516149552
H           1.59010566043683   -2.12296655318354   -0.06606015456387
O           0.87666573547729    0.49239558851500   -1.28584210580765
H           0.96531084484958    1.46000607821084   -1.43215814932609
O          -1.80832050995554    1.95175168581443    0.64946592437314
H          -2.42146230849248    1.86887927178287    1.38054790659433
O           1.45603073639036   -2.03861419392021   -1.50280773252176
H           1.43184610880106   -1.05404843512238   -1.59376425107936
H           0.53866349788042   -2.32175207928341   -1.60364865865443
O           0.52844942159532    0.93796448352370    1.39939906494941
H          -0.92724225685840    1.66556848193636    0.99797278624719
H           0.31389672533679    0.12205580031207    1.87093044008616
H           0.83948480451791    0.69371015726401    0.50562664295764
O          -1.73389876768303    0.02551526465403   -1.30248329781220
H          -1.67033993023411   -0.79259260024582   -0.79191694892543
H          -1.93991041043374    0.73606291665052   -0.66495395395008
H          -0.08957488561979    0.32907919766007   -1.42154479111415
N           0.47655897332775    3.17160263550966   -1.22589520411588
H           0.38181881511212    3.81785544494009   -1.99905507637585
H           1.06584349668313    3.60369641994135   -0.52490797472521
H          -0.44123960264971    3.04638126722142   -0.81036631354715
