    26
        -50.44227882  Gyration_radius:  2.56574633748 Dipole_moment: 2.861
 S          -0.84186741458024   -2.35176636268790    0.66674903572542
O           0.00837299406082   -2.59877702257519   -0.46661086606608
O          -2.10573322263434   -1.75439454625386    0.43570230772657
O          -0.05808265333716   -1.54422877871131    1.70595073652700
O          -1.06996699629868   -3.73622467554513    1.37670443719036
H          -0.33417040746140   -4.29491254060851    1.13766042635368
H           0.93846610375328   -1.46542054768738    1.36432727793777
O          -2.14524571152240    0.83213744020180   -0.62746336507909
H          -2.50982792596388   -0.00819570174774   -0.32298755889638
O           1.59482966924320    0.96760767545269   -0.35437387843017
H           1.52650820114829    1.92392985541064   -0.55389099252636
O           2.18414595024578   -1.37912186797471    0.65047062676460
H           2.19844047800281   -0.43907524803964    0.35072035554260
H           1.93300576389056   -1.89456215690514   -0.12855224717560
O          -0.09644417551899   -0.25401979365912   -1.96534655535232
H           1.03956738535431    0.54090944166559   -1.05553437117543
H          -0.14463191610329   -1.16744997141002   -1.65626053729417
H          -0.91750860175966    0.18603200448256   -1.64594583222435
O          -0.44060681348772    1.29786472941872    1.45025256061216
H          -1.64785936410415    1.17984773247479    0.13991996206623
H          -0.51074018499263    0.47170994810395    1.93633870614461
H           0.36822691593658    1.21984678029234    0.90403697335867
N           0.47209642888304    3.39346426813720   -0.82116132764981
H           0.77427358721097    4.30579742217960   -1.13899162128730
H           0.02377704157145    3.50893026558074    0.08086556868837
H          -0.23902513153682    3.06007165040637   -1.46257982149101
