    26
        -50.44227796  Gyration_radius:  2.56373925155 Dipole_moment: 2.841
 S          -2.19295821072182   -0.33991763466962    1.31904789868076
O          -2.48601858007984   -0.89219811228980    0.02394120895058
O          -2.10371404869141    1.06902583002459    1.43986592199453
O          -0.91985265372351   -0.99794716983995    1.86030063140638
O          -3.31267146038070   -0.85181942439609    2.29746986353371
H          -3.66903046559329   -1.65115197212844    1.91705931337801
H          -0.63991297673263   -1.75882247445658    1.18338763815155
O           1.26925260625096   -0.94675445834573   -1.05486550922447
H           2.05377154987461   -0.46059395001183   -1.38194694843343
O          -0.07759390169491    2.37999781793277    0.02525089092252
H          -0.86403484684457    2.30370659598510    0.57968211438394
O          -0.38236348477994   -2.63922127868648    0.07487874236993
H          -1.15263464674060   -2.41293383077382   -0.46456484644591
H           0.38641159526035   -2.21020390638305   -0.37048039757334
O          -0.82893110947400    0.50030019512050   -1.72744773833705
H           0.50599167426868   -0.43753043399937   -1.42907632865460
H          -1.58151788068959    0.11049570322263   -1.26512772625341
H          -0.58848529351226    1.31174115953208   -1.22399178594768
O           1.46347722901161    0.50216447078884    1.26376533829060
H           0.60997287352333    1.86925676194597    0.49846611962105
H           0.83244952970932    0.11770002685132    1.87834591823108
H           1.48559390807068   -0.09871074798652    0.49109289602709
N           2.96392022524515    1.12216175440807   -1.51583244247428
H           3.21113266643775    1.31953490270391   -0.55256202472153
H           2.24150887445667    1.78486056204122   -1.77561178670030
H           3.77623682755903    1.30685963341285   -2.09104695117737
