    26
        -50.45028656  Gyration_radius:  2.64226731486 Dipole_moment: 5.325
 S          -0.00951040601039   -1.38877209831883   -0.75097675479958
O          -1.47693996957646   -1.19677338740044   -0.35508175856816
O           0.83728721243974   -1.47417026366465    0.39505218507260
O           0.34948725451177   -0.34195697096645   -1.68920543183059
O          -0.03538855248382   -2.73597580311693   -1.48335681924097
H          -0.62737247536952   -2.54851500055947   -2.29320869761599
H           0.55197093421892    1.15015191086775   -1.00485874505350
O           0.49305635910219    2.02889865930682   -0.56575709983511
H           0.74193595057730    2.68111119218426   -1.22281338257382
O          -0.69834719012271    0.98316745908352    3.07204513738028
H          -1.00627502208019    1.63473749574337    3.70368838441792
O           2.92321299809620   -0.42962142366680    1.75435052386311
H           2.93989554305265   -0.95727612637352    2.55509842405490
H           2.23467601573272   -0.82961823431682    1.19354728415849
O           1.55015358744348    1.88177030945265    2.04183430393226
H           2.16460398904800    1.12092246614973    1.99099379215116
H           1.27550681686020    2.04380739221654    1.12753123739625
H           0.19607750404134    1.29497434245995    2.76844235286004
O          -1.75523784366500    1.05573543499893    0.67080532087312
H          -1.64436682815343   -0.25632703944508    0.10522879190490
H          -1.46220474299653    0.96110270974387    1.61790827570695
H          -1.05335813038306    1.57611008125634    0.23999240693881
N          -1.50405358235733   -1.75473710528887   -3.34401263010820
H          -0.98947883958448   -0.88879962957722   -3.21774816669712
H          -2.43972894615331   -1.62922720558362   -2.98106864083588
H          -1.55560161598462   -1.98071915492329   -4.32843031372360
