    26
        -50.45841236  Gyration_radius:  2.47245946908 Dipole_moment: 4.873
 S          -0.34424658421897   -0.65844605684933   -0.77844136395381
O          -1.69006924773063   -1.09279393669184   -1.04924386742567
O           0.34887214762366   -1.49697376732588    0.20010626376211
O          -0.26954124486079    0.75475277702244   -0.39345820130615
O           0.51297181762483   -0.76501118351286   -2.09011632962253
H          -0.07750125107898   -0.33664312646969   -2.77899428911958
H           1.27107244060327    1.19232362467253   -0.60363407955233
O           2.26075477698154    1.18851247764337   -0.67963700248650
H           2.44575643534552    0.73503565911663   -1.50652107887135
O           1.25010511550098    0.70487923313458    3.14922264383652
H           1.52249961630111    1.61817060154020    3.25784312004118
O          -2.13152024393029   -1.58523902339464    1.58442386859245
H          -1.37416656064840   -2.16624626579685    1.69631491607149
H          -2.20122370166541   -1.45333607293283    0.62372202110324
O           2.35663522241703   -0.47823808611545    1.23521020784417
H           1.95549761003174   -0.00017970920250    2.08785959960861
H           1.54519803067587   -1.01593283305803    0.83400511044463
H           2.50044202907455    0.24452071005034    0.52162911405490
O          -1.11122658206863    0.85388734037175    2.14796176844833
H          -1.61008945564565    0.01158727008071    2.16338480703320
H           0.28478152702362    0.73592838797177    2.84622282492716
H          -0.88676462792487    0.98226644390869    1.20742950096391
N          -1.38879339836671    0.41717565808477   -3.40767951030285
H          -1.96999520874455   -0.04237476866877   -2.70989805401520
H          -1.77692888572293    0.23924121834248   -4.32511100637896
H          -1.42251978661058    1.41313341809741   -3.23260098372519
