    26
        -50.45866513  Gyration_radius:  2.70454960654 Dipole_moment: 5.344
 S          -1.68241447321942    0.46561078295086   -1.99493256442091
O          -1.77473556235322   -0.58322304856756   -1.00091376985155
O          -0.45165301631715    0.39887862457979   -2.76942832325525
O          -1.89542356960847    1.79914962823467   -1.44951315765596
O          -2.87453746433099    0.21479727253725   -3.01381098980345
H          -2.80487598082024    0.96413250017438   -3.59653838595218
H          -0.74095771720069    2.01669044400156   -0.45106682439984
O           0.00861771401946    2.13476633536996    0.20646117035932
H           0.19673359444933    3.07476555397342    0.21543622481301
O           0.05295468465597   -1.55768588248756    2.85739934612822
H          -0.26987604424475   -1.51722353576230    3.75838635347909
O           2.51057052671904   -0.92178321022357    2.21622646248530
H           1.59531977392619   -1.14034825597843    2.53574444817803
H           2.96242076098174   -1.76385715612867    2.13905796774560
O           0.61767621340923   -1.60920863475092   -1.57641847291080
H           0.31799630463781   -0.93541991062848   -2.23676598358092
H           1.37703783471910   -0.61050440713399   -0.69306233382460
H          -0.21088614081980   -1.80272739241069   -1.11381117832701
O          -1.47463492006099    0.13654395289185    1.54660867262924
H          -1.72687724964770   -0.19297820046716    0.66047063269827
H          -0.55033215762048   -0.96982258709845    2.33227531096292
H          -1.01914876218870    0.97035952959369    1.37627402916966
N           1.85702769250178    0.17351091956970   -0.12480136738067
H           1.16490081951004    0.94410561978862    0.01028192097393
H           2.65545311878918    0.52194575275671   -0.64494263743562
H           2.15964402010910   -0.21047470477927    0.81138346917622
