    26
        -50.45866524  Gyration_radius:  2.70428714521 Dipole_moment: 5.338
 S           2.07591094724909   -1.60830530671038   -0.36598345887610
O           2.80553105432345   -0.39074540937121   -0.04362672311044
O           0.97799259768450   -1.37574138875470   -1.28103864495460
O           1.68227174466980   -2.32691267637306    0.83821086715337
O           3.09256798892354   -2.56012345965341   -1.12913858584901
H           3.74563742398300   -2.73883426355941   -0.46008656397927
H           0.68230676047326   -1.39615557510409    1.55281175559746
O           0.02208279153810   -0.78375484865619    1.99701753623342
H           0.10950219251802   -0.95046973666602    2.93701295701565
O          -2.99847734819695    0.44279849232706   -1.17595582100681
H          -3.88152562146532    0.07186066535066   -1.18983940356306
O          -2.36755559021316    2.52802102057424    0.27650691888513
H          -2.39316289307853    3.26359996610904   -0.33794552183084
H          -2.68177113889171    1.73974177805446   -0.24050374959675
O           1.37774325142598    1.25781817972542   -1.40177200310108
H           2.11351683506096    0.77578926716410   -0.94783665080030
H           0.91851379127683    0.52929002212263   -1.84476096710742
H           0.58639545052123    1.54442819776342   -0.11842698490770
O          -1.48636266881670   -1.51475633025171   -0.27945885364008
H          -0.63343535505610   -1.57529961838766   -0.75532286944951
H          -1.24116232584321   -1.38506297051640    0.64503819093949
H          -2.40236301989227   -0.30025517667613   -0.89674339990045
N           0.09366526482066    1.66896690884450    0.83521657512591
H           0.05993806443003    0.73644833987132    1.30483623769904
H          -0.88577166241971    2.03109506762864    0.67687070056534
H           0.62801145497055    2.31655885514576    1.40491847246736
