    26
        -50.45866515  Gyration_radius:  2.70495182888 Dipole_moment: 5.343
 S           2.22424109254078    0.29022234378483    1.41729499385795
O           1.76537478509113   -0.96409204685007    1.99607252205746
O           1.15732860937173    1.25675552707255    1.26125782642315
O           2.98371493936885    0.06521119371241    0.19505649553469
O           3.24535316131273    0.92394021435101    2.45537241247364
H           3.95238020472932    0.28666902555108    2.46055444122020
H           1.97369737489099   -0.52960610374220   -0.80633568359506
O           1.29886483704050   -0.90168484974862   -1.45009158906467
H           1.79343935239382   -1.47513652061363   -2.03791308133211
O          -2.32345505066665    1.84449058457363   -1.33298597646783
H          -2.50198135674887    2.45445810038639   -2.04973430923646
O          -3.12533751342419   -0.64767613461235   -1.37593148172824
H          -2.85123263651215    0.30565651196856   -1.43534037691570
H          -3.91980477453175   -0.65232742876861   -0.83920674388469
O           0.30265762938265    1.73229051247273   -1.21669806174302
H          -1.33592716372316    1.83401513470967   -1.23259177253168
H           0.63879174682374    1.71976829461177   -0.29775138907890
H           0.64463089042790    0.92094824428031   -1.61232856896609
O          -0.73120649808950   -0.38658160896394    2.17929951924934
H          -0.93533685100088   -1.08384100251886    0.82776614376295
H           0.18507476528895   -0.73289946705112    2.32146703556782
H          -0.55325072369404    0.54424741783725    1.97986651878012
N          -0.96851801011487   -1.59209483185570   -0.12540838236434
H          -0.99773488397176   -2.59406261927627    0.03148881165421
H          -0.10083561716439   -1.34620848612547   -0.65238140967232
H          -1.82092831900789   -1.27246202517738   -0.66079790399759
