    26
        -50.45866522  Gyration_radius:  2.70475640091 Dipole_moment: 5.348
 S          -2.62713002688875    0.22148218737348    0.28419209461226
O          -2.47503451290108   -1.14392290605803    0.76518015965520
O          -1.85410304214559    0.48171191582828   -0.91215333901110
O          -2.39060972082512    1.18886927977804    1.34687618465157
O          -4.15103655468476    0.39105910813658   -0.12936073598651
H          -4.60101467851962    0.28026583930446    0.70208969638694
H          -0.90486229404525    1.01859386994733    1.72193458633512
O           2.35690274410702    1.05262968727162   -1.98382732510092
H           2.86677019844182    1.82719429646913   -2.22407124725611
O           0.06801445004139    0.90472180756173    1.94250529048265
H           0.14731217921908    1.12098803631925    2.87306182602984
O           3.33240743785347   -0.85664639642109   -0.48121694736905
H           3.03179911500138   -0.09166173055296   -1.03986176647146
H           3.59146661895199   -1.54014244156249   -1.10167015320089
O          -0.78888502847074   -1.96120376977475   -0.99235369978928
H           0.32810001220238   -1.62392496005465    0.00451856987373
H          -1.52325462081853   -1.88146746489076   -0.33340195034262
H          -0.92533631481221   -1.16415475608240   -1.52529142191587
O           0.30705154144835    2.01650700259807   -0.64521790852474
H          -0.53168628152277    1.55991044731058   -0.85871601075933
H           0.41388939358876    1.89790436343204    0.30672954627947
H           1.54522173916737    1.39880273260840   -1.52927181117323
N           1.03348097692507   -1.34893996362559    0.77565385485151
H           1.97543499390429   -1.16215856454462    0.33597576451474
H           1.09629945824717   -2.10114893825835    1.45363212678127
H           0.67880221669316   -0.48526866258277    1.24406461611359
