    26
        -50.47250298  Gyration_radius:  2.48704269632 Dipole_moment: 2.885
 S          -0.19774232996533   -2.25013017633609   -0.19931889974372
O           0.97155183104537   -1.39646632670105   -0.11211868587338
O          -1.03749737141333   -1.90935618730051   -1.34122352633579
O          -0.95784632981496   -2.31770005935910    1.03407849296961
O           0.34501831716438   -3.71495118385393   -0.46296121899657
H          -0.45027240708062   -4.22557779870238   -0.35639055253186
H          -1.40362788682201   -0.87927437577743    1.55561476790312
O          -1.61796833342496    0.02735498738712    1.89946096910725
H          -2.39618123379070   -0.07641636170847    2.44899351750493
O           1.41417080509019    2.29505401142833    0.56683369863388
H           1.96532052645760    2.95045337426435    0.99478003568358
O           1.92821791315312    0.65301904690226   -1.58580744062806
H           1.91773240074121    1.33984618022651   -0.89415875538413
H           1.83591646764570   -0.18842646105459   -1.10176895521264
O           1.15956055419139    0.16648485880071    2.04638676888183
H           1.20734047002658   -0.51397706619041    1.34505237793166
H           1.38145430282860    1.50662886535923    1.18317311019573
H           0.22686484437567    0.17930231186012    2.30669236737161
O          -1.27108029426279    1.99390571979078    0.03323005910402
H          -1.48932349567792    1.33523373488720    0.71951048674244
H          -0.36716769279831    2.29172625816505    0.24153622511790
H          -1.02504870393996    1.17153464696034   -1.31228580200560
N          -0.64850208391596    0.55645779828780   -2.09236272159237
H          -0.85884077590352   -0.45476397111367   -1.84892478635968
H           0.41146543441778    0.65587291997306   -2.07597449916529
H          -1.04351493833096    0.80416524380091   -2.99204702331786
