    26
        -50.45866519  Gyration_radius:  2.70405934687 Dipole_moment: 5.345
 S           1.64341544915505    2.05256969436575    0.33086293712064
O           1.52418176425257    2.10860740630437   -1.11879980234698
O           1.82037190119522    0.70306379690383    0.82521668879278
O           0.55487304142171    2.76835615811186    0.98190187692476
O           2.97065601543999    2.83862908054113    0.70863949577471
H           2.77015202286338    3.72495635492262    0.42534815755438
H          -0.71916141932522    1.98104653343632    0.61514063080818
O          -1.53640079642889    1.44769522328953    0.37912607643124
H          -2.25563542391856    2.08068714847054    0.34668396288054
O          -0.60900549684590   -2.89801349873683    1.34590402875972
H          -0.98591788419427   -3.32215345357023    2.11770229920419
O          -1.87401723062272   -2.76853220182165   -0.94264794012389
H          -1.46060696517483   -2.85238655156476   -0.04282611623705
H          -1.49529056925771   -3.47763031949125   -1.46510931913845
O          -0.24914780983994   -0.40001474885238    2.08895092112361
H          -0.40912764534371   -1.96659250567582    1.62495113878238
H           0.59525118697908   -0.03023721761482    1.76061159185739
H          -0.92808278729858    0.18284047352001    1.72708900777546
O           1.65971130266083   -0.41332316623940   -1.59021192654178
H           1.92978535785460   -0.59035337479753   -0.67711778641283
H           0.12538370536038   -0.43908825943468   -1.59430876299238
H           1.73299899156723    0.57310106767240   -1.62582966786694
N          -0.95118992771324   -0.34762415337787   -1.57167522392451
H          -1.37598800117490   -1.28806892251517   -1.34708794618778
H          -1.27673531716369   -0.01234521562740   -2.47224741492685
H          -1.20047346439893    0.34481063178745   -0.83026690715890
