    26
        -50.45866409  Gyration_radius:  2.70529324951 Dipole_moment: 5.346
 S           2.50923160750034   -0.61197374631063    0.60215637787451
O           1.47544347531768   -1.51298628572895    0.13687003538955
O           2.15539917816262    0.05522449794450    1.84659493785279
O           2.94039450397924    0.34317884293902   -0.40912571201031
O           3.77495420973414   -1.51781337542099    0.91730306649171
H           4.42880601808795   -0.87351483286470    1.16905802089045
H           1.69423673819179    1.19616473964777   -0.71898424937575
O           0.86903302747921    1.73210468909565   -0.91911050099789
H           1.18274370369825    2.60282832035775   -1.16899400799311
O          -2.49215245617406   -1.22805164564845   -1.70187817951518
H          -2.80928502871670   -1.38495662684923   -2.59206321742117
O          -3.38926690725513    0.72867239944193   -0.21110329284338
H          -3.09542018440162    0.01522542052467   -0.83729172833306
H          -4.02700147932761    0.31127565915490    0.37057433691821
O           0.07885051287129   -0.75599394818696   -2.00232597693094
H          -1.51054963663928   -1.10750800325151   -1.78626920114207
H           0.27866326209607    0.18631283074046   -1.94013130043708
H           0.62261069904034   -1.17063337554839   -1.30243500967650
O          -0.19708913565216   -0.93768055858185    2.12964538163546
H          -0.75377862150280    0.31612879018819    1.44220368964824
H          -0.03112303750672   -1.57941673083014    1.42336996799933
H           0.71020266574165   -0.56885100323382    2.27234217777724
N          -1.04039086100177    1.23196595995744    0.94513540220447
H          -1.07830176597420    1.98345868115579    1.62575517486799
H          -1.98087682950531    1.09802289162497    0.48360959016724
H          -0.31533366824559    1.44881641968563    0.22509418695946
