    26
        -50.45028659  Gyration_radius:  2.64193602686 Dipole_moment: 5.319
 S           0.02748768739558   -1.34919648297556   -0.81484944107883
O          -1.40037219008641   -1.31265714760972   -0.26068528732668
O           0.99653590548447   -1.40267849211391    0.23197984381319
O           0.18913637082628   -0.23503023413606   -1.72998101860825
O           0.04332914374285   -2.66102392262418   -1.60919497721074
H          -0.64603052731945   -2.49659182306415   -2.34342715714846
H           0.32827256800334    1.23944394113309   -0.99373798269775
O           0.23953384002619    2.08936614986980   -0.50553169546704
H           0.36027970074947    2.78918531825504   -1.14953303998365
O          -0.43508387369315    0.77971396460021    3.17832864304901
H          -0.72713194582351    1.37203410573971    3.87275377126241
O           3.12630397027976   -0.22545616697641    1.40185351618863
H           3.28235820332069   -0.78114008630886    2.16779850371138
H           2.41518914212528   -0.66478246067469    0.90199405523149
O           1.59354563436544    1.93105228071287    1.95993671898794
H           2.26391059565915    1.23490351520616    1.80175877368165
H           1.20306092354496    2.10508591912312    1.09104976136025
H           0.38792481152225    1.18753471448793    2.79660920163704
O          -1.75955697291134    0.85449105515859    0.91364179338921
H          -1.59762767394472   -0.41482120437327    0.26716152475806
H          -1.35333628545203    0.74684696315996    1.81651091883688
H          -1.16113695179920    1.45800769631237    0.43782958422164
N          -1.69684488814425   -1.74552312451677   -3.25705311569646
H          -1.83280043123292   -1.93363875662020   -4.24139555388726
H          -1.25092258775362   -0.84118178116207   -3.13940907029798
H          -2.59602414889029   -1.72394394055834   -2.79440826072218
