    26
        -50.46742660  Gyration_radius:  2.40212426498 Dipole_moment: 4.782
 S          -1.27536502030644   -1.06680628559189    0.44651902482760
O           0.26456236083159   -1.40137789381787    0.48536488125480
O          -1.42933597339245    0.07784929918896   -0.45115098194173
O          -1.71526572972112   -0.76944757481827    1.78780574845212
O          -1.83867603156656   -2.27882177195860   -0.14318594780358
H          -0.84734573009039   -2.56539364498340   -1.14527853414751
H          -1.13841472034125    0.63097046416989    2.33299396799522
O           1.73556442372861    1.74989609089959   -0.74469232552793
H           2.25399646172184    2.48343294540218   -1.07703417413961
O          -0.67504777967551    1.45136463977646    2.64812044404768
H          -0.91262996324810    1.54481906149762    3.57189194799139
O           0.37939058164001   -0.13145937118667   -2.29537021862848
H          -0.40623570225968    0.04782279459633   -1.72301484281878
H           1.08544628730033    0.38637755195639   -1.87253991259745
O          -0.61406055332083    2.54522688044906    0.09723226274449
H           0.84851937389287    2.13021910468103   -0.48584929332963
H          -1.08310572135361    1.73448831542303   -0.18659299011917
H          -0.64580078784084    2.50233109500991    1.06358269750486
O           1.63053521866589    0.42562133540432    1.65103954206445
H           0.79993450108014   -0.72002454313993    1.00335291419749
H           1.85057848422739    0.93676343549249    0.85113799367932
H           0.92548607158916    0.91721146008209    2.11488320174691
N           0.00579508266240   -2.66761969416118   -1.84263067125116
H          -0.24123503560939   -3.21338272412779   -2.66223573513789
H           0.76718492317359   -3.09624038878183   -1.32401849434224
H           0.27552497953152   -1.65382055095940   -2.10033050488303
