    26
        -50.46742651  Gyration_radius:  2.402287058 Dipole_moment: 4.782
 S           1.45155915117740   -0.74874021603526   -0.54626753759866
O           0.53671711487544   -1.26206754611116    0.63034066415418
O           1.11837931984035    0.66140055974619   -0.74685297594157
O           1.18105419470551   -1.54366586097342   -1.71924338083080
O           2.79084058730798   -0.89898672286360    0.01756344610726
H           2.55412955908918   -0.46448829747629    1.36812749333071
H          -0.27130531145728   -1.24654233533921   -2.34711816707498
O          -1.21158215333538   -1.09282927911396   -2.62870726957207
H          -1.37647256346330   -1.71957912840649   -3.33475855916887
O          -2.12040737758720    1.30176263659093    0.66502356515641
H          -2.85317913753653    1.89994622028581    0.81497412851702
O           0.49671878357403    1.65303207546655    1.56560297445103
H           0.78039271659486    1.45430154757353    0.63991078574747
H          -0.46300311610927    1.49878594199656    1.54196298390011
O          -1.93812765018136   -1.34237371974707   -0.02645504712782
H          -0.43014625183042   -1.36179606268923    0.35767239529026
H          -2.17468217355961   -0.45258492142803    0.29278305732167
H          -1.87417040049376   -1.28503333678759   -0.99937959889514
O          -1.17021458315447    1.54526236929292   -1.76412775212771
H          -1.79375016218004    1.48756095778110   -0.26085383972169
H          -0.24148504473710    1.37332072284705   -1.50777551056862
H          -1.41136207076799    0.76784290948869   -2.28767220676520
N           2.21085422514419   -0.13532414230788    2.36740409311063
H           1.77198608979139   -0.93658546104219    2.81206024488946
H           1.46206482133028    0.61736069844766    2.16900614858496
H           2.97519143291224    0.23002037082376    2.92677987478318
