    26
        -50.45582959  Gyration_radius:  2.54151074446 Dipole_moment: 3.451
 S          -0.81363850508244   -0.00678284916424   -0.43450396658597
O          -1.58075648465948   -0.47218155192136    0.69991716569430
O           0.54544223003073   -0.60977894223114   -0.42820190632224
O          -0.70122071691950    1.44927437875712   -0.49433751813545
O          -1.48232467775831   -0.44352222452973   -1.74295459962490
H          -1.67240921722467   -1.47587291618760   -1.68076328332880
H           0.45961918919533    2.36927005134204   -1.14911774768645
O           1.32155567709110    2.73471193746013   -1.47617612515319
H           1.29511173983495    2.66740139786089   -2.43224356353756
O           1.98018732144259    1.66653053722450    2.26697140767247
H           2.20398965547775    2.58002991581121    2.45527497389582
O          -0.43998418827366   -2.86995106022593    0.87588766046432
H           0.41071684223884   -2.54692854232635    0.56210723478000
H          -0.95367174926274   -2.05309335416792    1.02515809972910
O           2.44848580556094    0.89397766748216   -0.11059483566373
H           2.34814350026942    1.18756973747070    0.87189878437645
H           1.63178281846057    0.17266152206338   -0.26162654666331
H           2.16035587928439    1.68632231555500   -0.68157304765159
O          -0.62971667833849    1.63021148472934    2.14416098028254
H          -1.07393958476930    0.77640980370747    2.22389854651237
H           0.98604817752171    1.60926271611157    2.32320510078022
H          -0.74169508840667    1.83596326926983    1.19728217657343
N          -1.89678308092628   -2.94517094946192   -1.50372187943204
H          -1.54678376930667   -3.52634501741719   -2.25335043172036
H          -2.87548576761886   -3.15209917550779   -1.35708362937862
H          -1.38302931787796   -3.15787016166140   -0.63951305976166
