    26
        -50.45582941  Gyration_radius:  2.5411930006 Dipole_moment: 3.446
 S          -0.63082405345305   -0.13186520627087   -0.65653933014108
O          -1.76856141038379   -0.03603935068745    0.23157906740710
O           0.51902155169044   -0.77263416427040    0.03502055335262
O          -0.21515251792013    1.15989559393485   -1.19959282798295
O          -0.97014585932025   -1.01867326047653   -1.85983234227131
H          -1.37361503019545   -1.91896937360953   -1.49596000120639
H           1.24796821928027    1.64913006899889   -1.69424286111092
O           2.22317875580088    1.78890626590485   -1.80731124461647
H           2.46682906111041    1.33317458231282   -2.61485392023017
O           1.51021004685740    2.31543016974422    2.04108524202191
H           1.85053686061750    3.20796261885003    1.95404031643563
O          -1.23274897399258   -2.22500590539115    1.64720356002540
H          -1.59283578975277   -1.38483208902547    1.30397939073578
H          -0.28110408885612   -2.11906037696107    1.54894684260635
O           2.49930712795687    0.60535478496000    0.43908280439510
H           1.63822738211703   -0.06103680189791    0.28170315598750
H           2.55990962047495    1.10952131861525   -0.44357166836095
H           2.17121513055587    1.28269011936714    1.14278259842951
O          -0.89618491249817    2.41279821122986    1.02888959663841
H          -1.50192292847709    1.69433564556012    1.25250881847684
H           0.55422362553151    2.35602208667406    1.75891882971666
H          -0.67775074645048    2.21838573500649    0.09838023446418
N          -1.92942888857778   -3.16751758400957   -0.88565834713533
H          -1.50096734544223   -4.02649848725893   -1.20279939306340
H          -2.92947935594119   -3.22958307102417   -1.02029515788755
H          -1.73990546076890   -3.04189153995386    0.11653607331715
