    26
        -50.46742659  Gyration_radius:  2.40209400143 Dipole_moment: 4.782
 S          -0.87141238614938    0.08448400714027   -1.48252618110805
O          -1.47643862382621    0.22039606218288   -0.15769095206807
O           0.52052926184510   -0.62370837218408   -1.26861891398840
O          -0.64509427097763    1.36316614142869   -2.11083349271820
O          -1.59243454225929   -0.89322780121204   -2.29381486332566
H          -1.17391233691059   -2.11538669158304   -1.66092611812240
H           0.05905752854787    2.42254555146013   -1.12447113040313
O           0.58038614480803    2.99721852851366   -0.50396941183634
H           0.79924287078748    3.78577548711290   -1.00280191447245
O           1.10885992967623   -0.02556817558693    2.32349161993728
H           1.37905500411949    0.02063676502319    3.24115575455575
O          -0.73277733724084   -1.82461834221296    1.24996602236689
H           0.06600243240791   -1.44555185996288    1.65476207471132
H          -1.16648071616751   -1.04198423088766    0.83009070275967
O           2.19348573386380    0.86810098256959   -0.02827649766136
H           1.20627144814232   -0.01767424927722   -0.84241556245087
H           1.76670194196694    1.74183705994971   -0.11999432162093
H           1.99196167446193    0.54951113833247    0.87026026562557
O          -0.60576709615938    1.86593319967658    1.73658836260335
H          -0.17998114451732    2.52917541666721    1.17491602456234
H          -1.11803965692496    1.32128875351483    1.10511901569948
H           0.43061267509678    0.69707727250577    2.19600883671284
N          -0.74236821807224   -2.96085968315160   -1.09219956645064
H           0.19076417838859   -3.12380038584397   -1.45976112341238
H          -1.32010417179966   -3.79302380360735   -1.15797108068248
H          -0.66812030322262   -2.60174276051828   -0.07608753984949
