    26
        -50.46742652  Gyration_radius:  2.40212950818 Dipole_moment: 4.782
 S          -1.15235902074171    1.20966102061389   -0.41844286977588
O          -1.25209441121743    0.22458441623037    0.80820356604125
O          -0.20236228481299    0.61088239232861   -1.35582988435600
O          -0.70778303544908    2.49605219713290    0.05972190447056
O          -2.51198304380067    1.17531999399355   -0.95165831534643
H          -2.81165346314965   -0.22458139569371   -0.80908740845857
H           0.83051788069512    2.48230563073089    0.53389466286416
O           1.83663560275323   -1.75584790441514    0.41634272172188
H           2.57345798595789   -2.36762036195132    0.42575727946237
O           1.74893521759163    2.38762521172447    0.90095477344555
H           1.95621317959703    3.23261677889695    1.30277362923191
O          -0.44557820062104   -1.96306027362724   -1.17405606848701
H          -0.29076014576209   -1.01834831407312   -1.41985713530880
H           0.23026957743800   -2.12984626472805   -0.49507343026653
O           0.91671919060616    0.13779338033693    2.16902995715587
H           1.31759071372477   -0.61914320582270    1.70442838932547
H           1.37061148937916    0.93985833431823    1.84546745709303
H          -0.42598837716417    0.23687280445037    1.38827761224476
O           2.41234825868094    0.41330259691479   -0.93473886874319
H           2.12274448148471   -0.98320869621212   -0.14899660015746
H           1.50744641213116    0.53450453886417   -1.28739663613351
H           2.52276171139869    1.15718331041326   -0.32554603908780
N          -2.90162095480843   -1.30938528526949   -0.61037778031210
H          -3.12590317563963   -1.41576948970522    0.37489622482952
H          -1.91505782671933   -1.70796657749799   -0.79679365124519
H          -3.60310776167231   -1.74378482805399   -1.20189349022994
