    26
        -50.47250318  Gyration_radius:  2.48728327605 Dipole_moment: 2.883
 S          -0.49921370205355   -2.21220261542199   -0.03287538116365
O           0.30523242781671   -2.24645539734757    1.18246050814207
O           0.07984188947520   -1.34649885872526   -1.04228108506019
O          -1.89323890071453   -1.92418168215683    0.24517043999778
O          -0.46345792332865   -3.67686750041640   -0.63553363776668
H          -0.98327730348554   -4.15039015667622    0.00474644884955
H          -2.13656310683860   -0.40496188571857    0.65969555950889
O          -2.27888205153027    0.55845928478712    0.85413368659583
H          -3.08284402628095    0.60655455148891    1.37344411464205
O           0.63067870833824    2.38948171048948   -1.21782521883070
H           0.62773407185123    3.15394961609643   -1.79407964013281
O           2.29397226744222    0.19270047406575   -1.16613551333430
H           1.60248892818204   -0.46879380611261   -1.35354036033703
H           1.85895354719873    1.05363276299210   -1.30659819523419
O           0.04096899048593    1.88608416647996    1.42524036735757
H           0.26683483365695    2.25174630835118    0.55094643959034
H          -0.82807114696024    1.45775728164547    1.30810277182488
H           1.10780573425698    0.70593399224087    1.55352853236094
O          -1.35279964977250    0.79096603034648   -1.76114800528988
H          -0.14232596798048    1.81908298765551   -1.49999544669359
H          -0.89382787880900   -0.06594981466648   -1.65084384196868
H          -1.92270042492976    0.86129521669801   -0.98126296712331
N           1.77588348534216   -0.10432751126462    1.39304964862832
H           2.49953266237041   -0.14232162850267    2.10137439531790
H           2.17591763524993    0.01805920902680    0.41397578729469
H           1.21135691101175   -1.00275273535267    1.37625058283056
