    26
        -50.44393146  Gyration_radius:  2.57616271543 Dipole_moment: 4.507
 S          -0.90397156415061    1.75445385200360   -1.78457575798445
O           0.16448425855707    2.59004578846269   -1.20504202317578
O          -1.57693504924036    0.99689120670564   -0.76493486436863
O          -0.40166057265926    0.95089223972335   -2.88578003360877
O          -1.95030318546229    2.76562067930656   -2.40249335865203
H          -1.49029682640529    3.13561267057582   -3.15058927906811
H           0.48943497578398   -0.12127209333780   -2.15965885028188
O           1.12555915217635   -0.66460299819290   -1.61339057812025
H           1.90698781996311   -0.78262467059842   -2.15756392065669
O          -0.63711664506021    0.62265397690303    2.03202008252993
H          -1.18795623551842    1.40267144863018    1.92975362790581
O           0.05679661531797   -2.60557218952388    0.10895891931169
H           0.62987915041298   -2.35141166408858    0.86180603365372
H           0.37787305104127   -2.09694650398454   -0.64693765743923
O           1.19160026892440    1.00596388730281    0.36823937593649
H           0.42647297606856    0.80769704899475    1.09486341364647
H           1.23236679912251    0.22852233711128   -0.26853139709396
H           0.79918753733809    1.78534060307079   -0.25450619643849
O          -2.04092054665548   -1.13767098195662    0.84143681398295
H          -1.20760210647912   -0.13657594129442    1.64251335623841
H          -2.15218630973332   -0.53564281205329    0.08986258620037
H          -1.38875525589906   -1.81946217676807    0.55177856275650
N           1.53637588437284   -1.55550415765200    2.20967867691586
H           1.77394171532435   -2.28348635543840    2.87160801060973
H           0.85616815973698   -0.94804105571136    2.65242824309832
H           2.37057593284453   -1.00755215825407    2.03905623448354
