    26
        -50.45038853  Gyration_radius:  2.6426967139 Dipole_moment: 6.839
 S          -1.02512493731191   -1.25560188603509   -0.19009076389708
O          -0.70116247385364   -0.70245592447451   -1.46409306014140
O          -1.59296116426697   -0.17878881904844    0.74947851017565
O           0.08029743900280   -1.90725625549695    0.48601856784062
O          -2.19654560845159   -2.23393797830280   -0.31340972694162
H          -2.29854544526220   -2.60001905575845    0.63696126507980
H           1.44387383319328   -0.97208696608046    0.38449089397206
O           2.16312483592156   -0.30418301442494    0.45280645897045
H           2.91870418775849   -0.75493285236043    0.83465362535478
O           0.15708483337594    3.13936765577171   -0.72459717312231
H          -0.60300785469574    3.72089160339051   -0.75438446651959
O           2.64391098227470    1.40007910398056   -1.72367277986426
H           2.51069941926994    0.73034562816466   -1.03518045939978
H           2.47109815907804    2.24880521720710   -1.30698287770795
O           0.22977815828851    1.44260072222207    1.28097608844960
H          -0.86121114497621    0.53471512489079    1.00574036521742
H           1.03725729287310    0.92863454250869    1.10145036185533
H           0.19411108984301    2.13956210905510    0.57250297503818
O           0.12628384284736    1.53084462516787   -2.78808250051659
H           1.08698657021797    1.37031843480131   -2.75321113659303
H          -0.27747146297628    0.71124793143851   -2.46223758455373
H           0.10060079846956    2.56956339450833   -1.54455188865421
N          -2.01292893292727   -2.88513369018789    2.15788329988080
H          -1.01122381729875   -2.74830698901998    2.06380800561453
H          -2.19556279797410   -3.77806086657371    2.59616406636831
H          -2.38806580241362   -2.14621178534209    2.73755993409390
