    26
        -50.47250298  Gyration_radius:  2.48698300706 Dipole_moment: 2.884
 S           0.90878933574526   -1.10736065189207   -1.75773304810883
O          -0.45932678750979   -1.56688723800886   -1.96365037207201
O           1.26719373266739   -1.08320833677174   -0.35253201745653
O           1.17178013836821    0.14337131862320   -2.44322016958245
O           1.85083926242634   -2.18674842818403   -2.43382397547427
H           1.66664463278849   -2.03919971778456   -3.35503470525541
H           0.45342628822049    1.38266960790618   -1.74542641012343
O           0.05132333993017    2.15144115400403   -1.26212856106677
H          -0.07493795881515    2.83830654775565   -1.91832547115245
O           0.05470675949051    0.97522481454792    2.57634362274918
H           0.31711656115840    1.41582972052381    3.38473367279561
O          -0.01996999244044   -1.70467695645972    1.93732112041114
H           0.63056869280108   -1.65892024100810    1.21238520036388
H           0.02125753777413   -0.82907058689286    2.36368454458146
O           1.83385219254858    1.30465476442435    0.70270634964502
H           1.80727004772661    0.41011902958823    0.30733840809233
H           1.38338424349176    1.86732990966220    0.05592141258341
H           0.79263415163642    1.12948544317342    1.91735531873697
O          -1.80928335148992    1.40173670587234    0.59417817649612
H          -1.26553396203225    1.37038733704316    1.40196797293932
H          -1.21560343315228    1.74030403862320   -0.10252493660231
H          -2.00841591226460   -0.15275662021176    0.29299977409003
N          -1.90434018241184   -1.20349186187607    0.17548680279569
H          -1.38120345912515   -1.38622864392671   -0.72951501893203
H          -2.80172525541164   -1.67414227562235    0.17875080913687
H          -1.27044659212922   -1.53816883311103    0.96274152041152
