    26
        -50.45038869  Gyration_radius:  2.64307568983 Dipole_moment: 6.841
 S          -0.60492382095789   -0.80958732700557   -1.28029567576421
O           0.23819523744753   -1.67198686650070   -0.51910194130912
O           0.14699205342639    0.46370172509057   -1.70252899625269
O          -1.82715042148553   -0.41032304010134   -0.60910546305642
O          -0.94823175403102   -1.44989116209760   -2.62812958263856
H          -1.59059987398999   -0.77553442132204   -3.05284777337523
H          -1.50319098130312    0.02393784521142    0.95637751591918
O           2.87211615386483    0.76821141188258    1.25377634964243
H           3.65674098269462    0.94117475890346    0.73303652901542
O          -1.23241351001589    0.43969267430032    1.80608100049194
H          -2.04081165012683    0.63945151467938    2.28198229018204
O           0.87446492148632   -0.70174402045995    3.26603428589936
H           1.49225550518978    0.03454214188257    3.26253126161084
H           0.09089352535884   -0.39752331988666    2.78256345626327
O           0.63364114026337    1.80467597299070    0.34675711495701
H           1.51041661904467    1.48118167262164    0.68665440101691
H           0.37845311029116    1.06822453402592   -0.87134986599571
H          -0.02882087101048    1.47921614822291    0.98206438488652
O           2.33107651580838   -1.79164359863120    1.22181860458162
H           2.73214004872901   -0.22146141157814    1.22103643635332
H           1.82635864767518   -1.75631734226584    2.05485544864662
H           1.66251595696281   -1.89842947605811    0.52718821281979
N          -2.53214645449686    0.47276557420466   -3.22750954899629
H          -1.99919945620140    1.29118665599161   -3.49005843982723
H          -2.75002741090197    0.53023349932304   -2.23743894019838
H          -3.38874423372136    0.44624584658260   -3.76439106487180
