    26
        -50.45038845  Gyration_radius:  2.64260276935 Dipole_moment: 6.836
 S           0.01244407532324   -1.26157635166199   -1.03621199144334
O          -1.31769617899364   -1.03354027186531   -0.57509868159739
O           0.97685151107982   -1.46810755846003    0.14359287589159
O           0.54963856844073   -0.21072807001765   -1.87942780943526
O           0.10177115326446   -2.60191984180534   -1.77118348561320
H           1.07189128572823   -2.62799788343809   -2.09624656048470
H           0.21359105505997    1.27450136774818   -1.22778196867346
O           0.14943095711823    2.10938155168154   -0.71099866845871
H           0.43782210302914    2.81405971753897   -1.29422061116105
O          -0.87277478293511    0.63829017722504    3.03884417316091
H          -0.81840935379842    0.00668367890850    3.75639086570169
O          -2.14413847747962    2.57339177504482    0.83669554184898
H          -1.41551453708945    2.42031154819130    0.21542504543574
H          -1.74369541217266    2.62893383705446    1.70866920462703
O           1.17181047691424    0.68741929431129    1.38846809492884
H           0.44688203886371    0.67886129327868    2.06916233782795
H           1.09480420764198   -0.58444574892609    0.70519564297392
H           0.90017547149176    1.34704225299657    0.72552307568491
O          -2.83973279967478   -0.00416009715141    1.43726796355548
H          -1.65114488054229    0.35350898160034    2.47926533421812
H          -2.93632084709684    0.90297589934221    1.09417303877129
H          -2.42500377709337   -0.50295748057866    0.71607925764059
N           2.54682572635691   -2.17663030869752   -2.40861881973300
H           2.30318133829944   -1.19275405175032   -2.46909013450250
H           3.04501083220957   -2.45646516591562   -3.24302995449285
H           3.14230021628845   -2.31407858375642   -1.60284377650726
