    26
        -50.45582887  Gyration_radius:  2.54033304071 Dipole_moment: 3.474
 S           0.33657088266999    0.03158135314476    0.86284620600134
O          -0.63408738412674    0.67660820044159   -0.06073290360381
O           1.69420118880353    0.32608962314687    0.45904438827440
O           0.05816633302686   -1.40098120463332    0.94102660986353
O           0.06218892969275    0.60355884460467    2.25802805251196
H           0.34679860421301    1.61573414375067    2.25510785581842
H          -1.33767435366194   -2.19613981595933    0.73426770892413
O          -2.23736932659478   -2.49172272453232    0.43990722786969
H          -2.83042832618741   -2.31263493774305    1.17163285298722
O          -0.19912944398165   -1.85337402951818   -2.87928195880356
H          -0.34446015651520   -2.77145257526333   -3.11574782831831
O           1.19070772249683    2.72107224256514   -0.58576001354219
H           1.59100992460204    1.87523513502597   -0.30688858840072
H           0.30838784062685    2.46850764800659   -0.87583865278894
O          -2.01387586658712   -0.78878975766448   -1.45047333052205
H          -2.24833030772742   -1.51742995631440   -0.77909661265712
H          -1.42255180920506   -0.08231016477164   -0.84833444071576
H          -1.33083786290457   -1.19957846845147   -2.10332716492681
O           1.69142022735321   -1.91223963248420   -1.07767712710185
H           0.59235253940668   -1.84670006425028   -2.27195074830525
H           2.15805995146796   -1.08440382211062   -0.90262785885239
H           1.14125458362645   -2.01210049542014   -0.27874917166320
N           0.77045195628784    3.04781205572956    2.15369857306036
H           0.96258424714590    3.16447185448816    1.15089090350254
H           1.62298003354664    3.21978281228546    2.66900909750614
H           0.07160985962060    3.71940374199701    2.44102690473667
