    26
        -50.45582962  Gyration_radius:  2.54114552066 Dipole_moment: 3.472
 S           0.27146424984138   -0.35095525516885   -0.80919826095627
O          -0.20387006760058    0.75282256165855   -1.61404704293148
O          -0.62968046092096   -0.57607110052867    0.35192792997615
O           1.64195170379492   -0.16902441944107   -0.33513597334897
O           0.26502155040898   -1.64668170776735   -1.62831754859860
H          -0.68607086215349   -1.74933237873945   -2.06464220969801
H           2.36531427716422   -0.76111746423791    0.98816649344885
O           0.68294959708994    2.33012199759596    2.43345778291606
H           1.46209749862210    2.65328012270107    2.89011185502770
O           2.56828884867911   -1.09892651645223    1.89809897594490
H           2.68982781707481   -2.04595696341899    1.81093498954974
O          -2.79357608234833    0.40725754773738   -1.10954613302573
H          -2.63151033449071    0.07908072931257   -0.21931712751657
H          -1.92074290158205    0.74094163410212   -1.39299976967046
O           0.28663598118666   -0.17803090768908    2.58448772847596
H           0.40394251706029    0.84520077206652    2.60553311885607
H          -0.17622293967723   -0.37657770514368    1.60573640528871
H           1.21824365877193   -0.57539380907122    2.48032983180447
O           1.29923715639598    2.44446181276751   -0.10338460453135
H           0.57668860972111    2.41247274320275   -0.74358398645628
H           0.85684572842000    2.46703126881914    1.46098127353810
H           1.70346647058451    1.56227041198998   -0.20147186500985
N          -2.06827003440472   -1.81394836360358   -2.63583958175690
H          -2.55512549660842   -1.04569026961178   -2.15747359749031
H          -2.56064671887966   -2.68030138119725   -2.46545809423058
H          -2.06625977250082   -1.62693337601265   -3.62935061743921
