    26
        -50.45038865  Gyration_radius:  2.64294157214 Dipole_moment: 6.837
 S          -1.02054827354434   -1.26233237909916   -0.16637211542870
O          -1.27508090218444   -0.16835450001982   -1.21663937330801
O          -1.11912511555445   -0.73486136348039    1.15496095028112
O           0.24784256464910   -1.89564096501439   -0.47267550295098
O          -2.16147736638909   -2.24737743842163   -0.43588593434334
H          -1.95597670321000   -2.59445330342037   -1.37648460532816
H           1.50106488567203   -0.95799466951457    0.06970621374123
O          -0.11039789268279    3.12451049672839    0.79779818880827
H          -0.84712587692836    3.70285628327325    0.59903453022760
O           2.19866500984732   -0.28620362931714    0.24351054516458
H           3.04040976844633   -0.72585299421550    0.10912645204226
O           1.95474306120203    1.37220963363404    2.49339535626391
H           2.05116668713052    0.71716686905743    1.78492494273443
H           1.91304488497260    2.22916884851348    2.06016274049036
O           0.60521391763054    1.47132756171175   -1.11574629508987
H           0.34171522368077    2.15265816193843   -0.44098516080841
H           1.32070823548206    0.95652518910169   -0.70171247425502
H          -0.50756824064255    0.55343566253880   -1.21561385331181
O          -0.77080356361242    1.47171456367813    2.71581154529097
H          -0.41537376032182    2.53727639065427    1.54759878357394
H          -1.04406466980182    0.65816070274914    2.26376543594103
H           0.15395991989292    1.31511964979891    2.98085672778488
N          -1.20341966056400   -2.84796079716263   -2.73531154016821
H          -1.38450225258522   -2.09972781279877   -3.39115826367648
H          -1.22931668746198   -3.73305421386624   -3.22385682965345
H          -0.28375320312760   -2.70831592703046   -2.32821047401187
