    26
        -50.45754051  Gyration_radius:  2.44568166953 Dipole_moment: 4.174
 S          -0.58354720603552   -1.50823217188320   -0.36644653447135
O          -0.98031833766066   -0.53407768473072    0.65831832609424
O           0.39655568851050   -2.44710033749998    0.15103368921477
O          -0.08514047097239   -0.79423468452580   -1.54419406978865
O          -1.83921451635635   -2.30931024745536   -0.77402115535436
H          -2.42585424527693   -1.59992567205680   -1.17048001860395
H           1.39790670152810   -0.26577459778731   -1.26643851388494
O           2.30340740582973    0.05179673677251   -1.00674040242510
H           2.90244017709613   -0.27339178954391   -1.68109844857881
O           0.71989641853058    0.09124465304185    2.54953632164358
H          -0.04999337720378   -0.17383525709554    1.98616344776525
O           0.95050451634488    2.56237149260675    1.68953555860962
H           0.43881499260984    2.40985428833917    0.85933842022251
H           0.48457370779695    3.24601017194842    2.17282652601792
O           2.31332778896541   -1.22840205840944    1.22930744178064
H           1.67638105008190   -0.60434962022666    1.93935941903139
H           1.61331852013120   -1.88206467822366    0.86298262195735
H           2.49064120795398   -0.63790351835842    0.42842264831318
O          -0.52427995544504    1.83623596029036   -0.41174615460526
H           0.05695678135647    1.60184431319693   -1.14010099519847
H          -0.78840906896457    0.97626741448493   -0.01499871904795
H           0.88307808294372    1.05025737196505    2.33539499083034
N          -2.86045847093865   -0.13978700606346   -1.78242118789043
H          -1.91858762922953    0.03496726004446   -2.11899956048108
H          -3.05603723504334    0.52663154317256   -1.04629140996056
H          -3.51596253655388    0.01090811799104   -2.53824222116875
