    26
        -50.47250310  Gyration_radius:  2.48720338249 Dipole_moment: 2.883
 S           0.59176963340704   -2.15938692808112   -0.36154629303744
O           0.26063288899355   -1.84665954871472   -1.74646997089069
O          -0.35138770259231   -1.56830370349777    0.56832300323472
O           1.97598668185356   -1.85711739269065   -0.05141454937070
O           0.43791908773646   -3.72861795716612   -0.20734545952803
H           1.17465985667761   -4.03590065166209   -0.72428100385032
H           2.25314667182961   -0.29085154718523    0.04516137855473
O           2.39434040947699    0.68494586230615    0.16397016663345
H           3.32300477411840    0.84037125199321   -0.01431666281620
O          -1.15594772680895    2.00865306104143    1.49019304481409
H          -1.39850628503892    2.59549921040857    2.20662841109416
O          -2.56209557137806   -0.04255016829576    0.30257865616380
H          -1.93834183536647   -0.75246678640509    0.54305309132565
H          -2.25555078703260    0.73710549224012    0.80091057258786
O           0.33708367218375    2.19350284378874   -0.81709430744807
H          -0.19771866439905    2.32551905239139   -0.01355829915600
H           1.13676393207806    1.72013640473813   -0.51894808228828
H          -0.54641954394085    1.12393263059919   -1.60615651035884
O           0.61314017148653    0.25928738180023    2.26173453060801
H           1.41141166048861    0.51147409848230    1.77489122977421
H          -0.49394822865069    1.35935121395457    1.86780834746836
H           0.27330652314813   -0.52358069482807    1.78344410252366
N          -1.17769796507203    0.32197918805394   -1.90110929835423
H          -1.89696378255087    0.19752573871575   -1.12594974800041
H          -0.59903813544288   -0.56738335120276   -1.91890780108244
H          -1.60954971519395    0.49353527921368   -2.80159856859288
