    26
        -50.45754075  Gyration_radius:  2.44545170426 Dipole_moment: 4.171
 S          -0.86387842328584   -1.40962913833747   -0.14818876307450
O           0.00573525680579   -0.90654456959070    0.92304311986889
O          -0.12025415595033   -2.23071314708446   -1.08770906604286
O          -1.51701629354199   -0.27865006743754   -0.81113240849420
O          -1.95236212889575   -2.29425030025870    0.49780947782065
H          -2.44365673750612   -1.63972439468185    1.07631655501691
H          -0.48032218668082    0.44370112148879   -1.78995152594068
O           2.55409999571945   -0.55194075123200    0.43778577727007
H           1.65539719760563   -0.78664291126752    0.78122061895876
O           0.22982018283634    0.85280011159782   -2.35262409525603
H          -0.12430902758924    0.88878309694867   -3.24294677499863
O           2.36722402932996    2.05305269752018    0.71495078004968
H           1.38153180654038    2.06108427925789    0.76528356269470
H           2.68338220332670    2.43413302790387    1.53522747476064
O           1.93467623513192   -1.02329443717532   -1.88955113598224
H           1.43331394433402   -0.19037004534076   -2.16587378023068
H           2.35697860421980   -0.80185435291901   -0.85337300597421
H           1.17083132932159   -1.66578920206715   -1.65511767033453
O          -0.27426906503327    1.71915856208452    0.88347527855189
H          -0.21286850723184    0.74313778621691    0.98428775298793
H           2.61932882889828    0.43789244220546    0.53036262226087
H          -0.66621265156630    1.85199704118227    0.01628011792540
N          -2.91315008541737   -0.18883185510408    1.68572970692156
H          -3.84646893226293    0.04640837483056    1.99761845648423
H          -2.72994427161356    0.27753201560709    0.80264966828413
H          -2.24760715751025    0.15855460564785    2.36442726647257
