    26
        -50.45754061  Gyration_radius:  2.44555709237 Dipole_moment: 4.175
 S          -1.49939448859742    0.47937232195850   -0.52007407381600
O          -1.87553222130092    1.59315522293658    0.33299826575347
O          -1.06948953923004   -0.67831870169324    0.27469780243289
O          -0.43356817611885    0.84526120020788   -1.45572017019373
O          -2.74407803921639    0.06307660325253   -1.33372836234573
H          -2.37977769362425   -0.65711160224533   -1.92792229633459
H           0.72235158576009    1.62806690080439   -0.67617604992526
O           1.40760662833125    2.08086628377168   -0.11625484299243
H           1.56229963334236    2.93455768197159   -0.52447846821703
O          -0.00966493967426   -0.28059588468969    2.63526605371566
H          -0.52703628871309   -0.56100466267963    1.83867112107557
O           2.33504694835130   -1.17804559211806    1.86489448888376
H           2.58230476214124   -2.06328330214993    2.13559787755009
H           2.09309430635771   -1.23602420496924    0.90968624643738
O          -0.06062290566157    2.08956796095888    2.00145579079998
H           0.00809647694787    1.03156375188808    2.42321389414395
H           0.66900372550492    2.15562696216721    1.30529179263790
H          -0.90317121414777    2.01363306630231    1.42240528733970
O           1.34456301363226   -1.28004399376484   -0.61015959286341
H           0.41649218690098   -1.14139491428116   -0.31676410284780
H           1.57683360130085   -0.47325016896480   -1.07752125278822
H           0.91716159332730   -0.60863023558046    2.47412007240442
N          -1.26874191094339   -1.59989780569739   -2.68466454238012
H          -1.34453355350840   -1.95825248365234   -3.62779307992548
H          -0.94098910467607   -2.34318819743110   -2.08108109516470
H          -0.57825438650076   -0.85570618627049   -2.66596078339093
