    26
        -50.45754066  Gyration_radius:  2.44556050252 Dipole_moment: 4.169
 S          -1.53014247233004   -0.29926987004795   -0.57062502678571
O          -2.38681376759657    0.68823451846928    0.06259042232798
O          -0.70327294312216   -0.99994203310245    0.42030674709106
O          -0.66199422944367    0.30290885628264   -1.58489063311267
O          -2.43649420289519   -1.34325657120096   -1.25859215428177
H          -1.76953550017456   -1.93924180327294   -1.71077313812668
H           0.01649921506123    1.62453512903200   -0.99602954422378
O           0.41855079034449    2.41578930519665   -0.54807063289229
H           0.23002408061467    3.16606635542594   -1.11456056198339
O          -0.05233109054875    0.22855951305927    2.63973283293998
H          -0.35569474150644   -0.38385954053622    1.92334962891161
O           2.49644893827964    0.27436597009842    2.00673591653324
H           3.07110334307583   -0.36149336844731    2.43509690169732
H           2.35904028197576   -0.05044555543729    1.08479916397300
O           1.79090244145391   -0.67536894731522   -0.38432772422728
H           1.69570709070487    0.05686928172548   -0.99911586597695
H           0.93487202045240    0.29650513547360    2.52543227926781
H           0.87303309874745   -0.88929607999964   -0.10432433531553
O          -1.04537390372168    2.19688567853153    1.56125149099953
H          -0.36858121968260    2.43315651317417    0.84873028895250
H          -1.74381716730001    1.66910980159328    1.02705823148885
H          -0.56939973116618    1.36439600735082    2.17731743656431
N          -0.32177788719262   -2.44865794575062   -2.29432911292781
H           0.24648710272713   -2.85592416365999   -1.56255380167401
H          -0.00708871841708   -1.49412086478725   -2.43835541139267
H          -0.18035083832072   -2.97650534183746   -3.14585341782197
