    26
        -50.44890845  Gyration_radius:  2.47794081004 Dipole_moment: 4.967
 S          -1.63360557214903    0.68649813632563    1.00049382024011
O          -1.48155602399285    1.13699418175509   -0.35562457351031
O          -0.73443312501772    1.35696920557112    1.94537704908498
O          -1.53316463510879   -0.76140437808634    1.14326118144024
O          -3.08866534910942    1.08501962352794    1.46392519768860
H          -3.02471100440529    0.98736512556416    2.40787286930202
H          -0.11787835916451   -1.37379043268976    0.97192849522620
O           2.67484196594417    1.77774623518381    0.02230360701345
H           3.44314997983477    1.33099915481518   -0.33939834463434
O           0.84097240421094   -1.67372120827843    0.95624084843588
H           0.87323157457014   -2.48834556084592    1.46119592375305
O           0.98689135261991   -1.28530788563790   -1.86161773986615
H           0.02219210613180   -1.41025361711629   -2.01788673690960
H           1.11807086521759   -1.54873975026097   -0.94243309682104
O           1.61757675566403    0.57786179699140    1.92307476294547
H           1.45832970304447   -0.35747997169039    1.57399634097209
H           2.11233057540877    1.13020123859698    1.14173869864646
H           0.64712300979755    0.98046347469178    1.99344374977316
O           0.86299501541024    1.37370291628605   -1.70473657823454
H           0.96692636319596    0.41261787503098   -1.90924619738993
H          -0.01806804763811    1.45140217159726   -1.30028345162808
H           1.94740997231303    1.71724307392283   -0.69713867773451
N          -1.72664827162643   -1.34614234516102   -1.80254164796264
H          -2.08577547433151   -1.98935239088052   -1.10747540027643
H          -2.36466486803539   -1.34962580321729   -2.58867341947405
H          -1.76287090279030   -0.42092084602100   -1.37779668003056
