    26
        -50.44873379  Gyration_radius:  2.47407325784 Dipole_moment: 4.933
 S           1.67293181149991   -0.75012503326312   -0.85616400952305
O           1.28625502746888   -1.40813443294830    0.35619709941488
O           2.32944660860929    0.54506430205790   -0.64926094792917
O           0.57600541105509   -0.60648613151958   -1.81441974633989
O           2.75977599219856   -1.65011356065477   -1.56304647114871
H           3.14315582484397   -1.03581154591802   -2.17976935127672
H          -0.47417818874984    0.51554499868935   -1.53905125858482
O          -1.05930742870788    1.30006158158145   -1.32254580138492
H          -1.39803690464562    1.62014360815441   -2.16060222571941
O           0.32493249290321    2.13847676664764    2.35886179276313
H          -0.49316400986029    2.56125323521144    2.62854892640636
O          -2.35911866152276   -0.28231346490457    0.67076990762590
H          -2.11559770212737    0.37122004882974    0.00402350866335
H          -2.15718599520321   -1.15237882141544    0.25524595068395
O          -0.24443037720187   -0.32747490974815    2.29472067798374
H           0.38005172951526   -0.79499236304400    1.71090257778725
H           0.15428202705298    1.12726080734117    2.41524446395766
H          -1.10873857438613   -0.34617765059009    1.81683877024611
O           0.85852806341661    2.44603899713771   -0.04513813542592
H           0.02785355681655    2.14093234466823   -0.53044846732404
H           0.66010873535125    2.36326561512320    1.01351796803810
H           1.56030868654016    1.69548532383088   -0.27211916362573
N          -1.29061616521810   -2.45908332018829   -0.54853431981044
H          -0.65443145606619   -1.93378308548072   -1.14340237709709
H          -1.66373520592031   -3.22926619457790   -1.08965776171902
H          -0.71509531771011   -2.84860713502260    0.18928837326408
