    26
        -50.45546775  Gyration_radius:  2.49793533544 Dipole_moment: 5.336
 S          -2.17701803197730   -0.12520484863965   -0.06518064622073
O          -1.13149432105835   -0.51189131119129   -1.03003417353705
O          -2.57366948383886    1.25302648741031   -0.18281993839445
O          -1.82003960272950   -0.57569643315367    1.25876616092680
O          -3.45845423859140   -0.97138326791238   -0.50799492763397
H          -4.03137966473031   -0.27619208246284   -0.81367606604930
H          -0.51795863911542   -1.29956649301861    2.04669316335741
O           1.63264988520795    0.63065233292780    1.41634809028683
H           2.18343842190557    1.16749776901537    1.98737782011032
O           1.28530801147197    2.59603152594821   -1.84688534510730
H           2.11831882560664    3.06900711865863   -1.85181421953826
O           0.39579626169095   -1.64899991749665    2.15193127778312
H           0.47771346557350   -2.24185716369534    0.78592274105219
H           0.95252002329567   -0.84831562330488    2.06439117077276
O           1.56290368359701   -0.07966135508867   -1.26070437221903
H           0.59104433291046   -0.08250159218662   -1.32790300296032
H           1.49909160927375    1.64381520959348   -1.85495619783450
H           1.74956345404813    0.15214271092965   -0.33474159186059
O          -0.18504641932241    2.21946118942045    0.48107805338022
H           0.18566230155222    2.50810849417644   -0.37303770142331
H          -1.09792742831395    1.93117164562031    0.29510596958059
H           0.86984682006342    1.22126249175690    1.14411783973960
N           0.40641823900170   -2.43909260422159   -0.29208389375655
H           1.26196523555115   -2.12873133212111   -0.76093362342608
H          -0.36059101617361   -1.75916503152354   -0.62374474613685
H           0.18133829515783   -3.40391790951427   -0.50522184093324
