    26
        -50.45546792  Gyration_radius:  2.49778140452 Dipole_moment: 5.343
 S           0.30818017813488   -0.98340564247729    1.92274402925200
O          -0.90352595194964   -0.72486422788805    1.12344285018703
O           0.65706898312204    0.11018661714596    2.79033509729158
O           1.36205140007396   -1.48750708210515    1.07540361389566
O          -0.10732940037723   -2.17904631525660    2.89821684654492
H          -0.10596061330670   -1.73058129297208    3.73716307390675
H           1.65795000819096   -1.75479188393338   -0.56198150249607
O           1.21048071835560    0.96284108574716   -1.63887085516986
H           1.80024854364201    1.55802962578267   -2.10332991838529
O          -1.24937752333252    3.18875300591037    0.27045421682685
H          -1.27607037986355    3.95150538411620   -0.30850333065631
O           1.48875169657007   -1.71623620954115   -1.53050835413000
H           0.02105362765165   -1.95831841753450   -1.42663189809184
H           1.52815936476435   -0.75755127920536   -1.72592133986062
O           1.10992981397648    1.81973222042675    0.80237188190723
H           0.31800430049367    2.38813158980381    0.81013208835998
H           1.02345699601768    1.22623981902973    1.57134356256361
H           1.26021412691447    1.23194643691009   -0.67459052106142
O          -1.49747168303139    0.79870890430993   -1.07332943482116
H          -0.59544473765842    0.90949817923806   -1.41960380281451
H          -1.38060015378925    0.41414513957433   -0.18587816752932
H          -1.56308432947891    2.42538162922715   -0.25043457575448
N          -1.03621035691872   -1.96245403766691   -1.12921421366602
H          -1.46642392260991   -2.87695006781023   -1.20393825231313
H          -1.54911803371663   -1.24951088022296   -1.65528688821590
H          -1.01493265330825   -1.60388230177817   -0.11358421804445
