    26
        -50.46691580  Gyration_radius:  2.45769691954 Dipole_moment: 2.733
 S           1.88885876982160    0.30835367907299   -0.30446947772970
O           2.46738682003928    1.58827015966110   -0.00592166455005
O           0.96186871979655    0.30116179321248   -1.42007827217622
O           1.33736433315339   -0.39389956856144    0.85166814997607
O           3.11710028043363   -0.62667311117066   -0.76325077534663
H           3.79959142352518    0.00368222024676   -0.97133693882710
H           0.16006861279143    0.13837683623032    1.84920338191671
O          -2.16590264675236    1.66744349980020   -1.05621326000849
H          -2.66082968307343    2.47445141318646   -1.20228806261501
O          -0.58395526536600    0.51023585432002    2.37686849328095
H          -0.41623737192051    0.26929734250857    3.28894383691449
O           1.17351537951106   -2.83778939669495   -0.11487519672612
H           1.95470667379031   -2.90473408784465   -0.66779005431805
H           1.29731775281823   -2.00669115104921    0.39140254511376
O          -0.06202171213532    2.47614336856379    0.39548041856283
H          -0.26451621419457    2.04607846531946    1.23707781235209
H           0.87040029355925    2.28884656964708    0.20441506723131
H          -1.30849108291830    1.95067926072621   -0.66706822776759
O          -2.51653755596525   -0.36392003626530    0.64130272320915
H          -2.60314801681363    0.42946847063716    0.07071834748708
H          -1.60396879776849   -1.12600131334686   -0.36065944307999
H          -1.94012557956911   -0.08160074025669    1.37497795217939
N          -0.91955139759166   -1.46933391373354   -1.11465843074118
H          -0.24663556856614   -0.67101082330112   -1.31627505928481
H          -1.42070845777662   -1.73144693553360   -1.95621422019600
H          -0.31554967885143   -2.23938784537778   -0.76095964484034
