    26
        -50.46862861  Gyration_radius:  2.47489722885 Dipole_moment: 4.024
 S           1.98450360033806    0.46132773484813   -0.94549588608599
O           1.08539803104055   -0.10767374187100   -1.91189572358082
O           1.82641507287801   -0.18347306042441    0.36932510669971
O           1.94438519847679    1.90503944807664   -0.83876683287269
O           3.46240663067839    0.11143109264408   -1.40979625650929
H           3.95223041435383    0.82645676053938   -1.01757048050948
H           0.37543317400621    2.19150123224322   -0.62609932424169
O          -0.57432172255218    2.34051204295976   -0.39498837179973
H          -0.84005844908066    3.13397935851544   -0.86302551512272
O          -1.61357898042553   -0.71898085849810    2.08015608321878
H          -1.99927929263399   -0.79060233489006    2.95336553169053
O          -1.09034348098923   -1.64530372705496   -1.88960723687279
H          -0.33083515702544   -1.11530809908548   -2.19624326259281
H          -0.46536821922201   -2.03858272046770   -0.57815730136415
O           0.16831108505921    1.16896037193516    1.98912843443005
H          -0.95238135217036    0.03428375639004    2.12198272087328
H           0.90005039903094    0.73167315758094    1.50998011380452
H          -0.18468043790011    1.81096916630302    1.35435397309153
O          -2.37426652338222    0.23294710498539   -0.50251338619464
H          -1.73417097372468   -0.97810518967327   -1.55465979318614
H          -2.33388807970992   -0.08937576118702    0.40797497954459
H          -1.76998434123385    0.99415269877456   -0.53998736254945
N           0.02402700745550   -2.09243886215418    0.39664466267472
H           0.37338599342581   -3.02213179843542    0.59743506591413
H          -0.64943895325719   -1.77297749762905    1.11883221575350
H           0.81604934655891   -1.38828028442595    0.36962784579393
