    26
        -50.43922929  Gyration_radius:  2.66142255729 Dipole_moment: 2.161
 S           2.12824737499936    1.40642618585894   -0.95629881072883
O           1.03039866674412    1.79439293478347   -1.78851353744199
O           2.34653582067126    0.01381264458734   -0.76665621828913
O           2.05471901687882    2.13979444918093    0.38880717457441
O           3.43908734269168    2.01630022465484   -1.57347842459500
H           3.18468618363746    2.86618729788325   -1.92497370016814
H           1.08392470391705    2.35165494840374    0.66952201670214
O          -1.11474214560432    0.15119765738408    1.33507163355933
H          -1.83548804073027   -0.51923090325176    1.28216672016110
O          -0.22780098284853   -2.51368224753444   -1.00490074670240
H           0.49118541695025   -2.72249273659143   -1.60293901272224
O          -0.28500233081210    2.60706960707154    1.18243010012690
H          -0.21966406139489    2.91419833111764    2.09005186267674
H          -0.70848122739764    1.71091641342091    1.22806032301070
O           1.01895497254926   -1.40101519802815    1.16365465071870
H           0.58218449016089   -2.00632557206635    0.53313699064765
H           1.66340919398747   -0.92314908639969    0.62056464796760
H          -0.29070792768073   -0.39070343025259    1.41012760398397
O          -1.00901578732425    0.00265766472824   -1.44227464800200
H          -1.18277313048089    0.19978495002678   -0.50461681580215
H          -0.33935304450287    0.64246230880918   -1.72575902642755
H          -0.54238615541583   -1.61565721462713   -1.26998551425811
N          -2.71786494912145   -1.95543391609233    0.78483039533475
H          -3.45728809016896   -1.72737861768107    0.13190623018554
H          -3.09327562827950   -2.59251188591223    1.47585858219338
H          -1.99948968141395   -2.44927479949308    0.26420754329364
