    26
        -50.46691591  Gyration_radius:  2.45743978649 Dipole_moment: 2.729
 S           1.44835292375453   -0.40982223633383    1.22097534775637
O           2.79231127150851   -0.53429139869160    0.73078452912092
O           0.53986328584122   -1.45498154894344    0.78960327163846
O           0.85810869079853    0.91497835630601    1.04617590839563
O           1.55381006866299   -0.56813272998397    2.82025978408147
H           2.41234501491566   -0.96205021761790    2.94002842574118
H           0.63796328619671    1.71095187333609   -0.36170812458840
O          -0.61199799797531   -1.49787208852350   -2.44069788427482
H          -0.43825756205483   -1.89058716983561   -3.29691115532337
O           0.49841147180495    2.10603453362853   -1.25318170270272
H           0.65680016364326    3.04644600785865   -1.16041638550330
O          -1.14795356943133    0.76198639803087    2.74502618352620
H          -0.37723369667847    0.98208474317242    2.17945365497664
H          -0.78124238203502    0.24598879645895    3.46596378405594
O          -1.84218140592060    0.75634636536534   -1.70799458870662
H          -1.49542880751389   -0.03264214942146   -2.17656406381919
H          -1.96353014869835    0.03091801374714   -0.33846864889645
H          -1.07770532393769    1.35653903176265   -1.63153505084221
O           1.73813189681959   -0.39916520187400   -1.76277159359450
H           0.26641458432025   -1.22703273833313   -2.09175417744171
H           1.50337717670635    0.53759218411526   -1.80087648053598
H           2.21220671162590   -0.53346222392925   -0.92716348730925
N          -1.89990150241960   -0.58691654754406    0.53865081925049
H          -1.92340695396381   -0.01833781397850    1.40987547966127
H          -0.93643119328576   -1.03685545956521    0.53780490877245
H          -2.62282601269457   -1.29771674920080    0.52544122655452
