    26
        -50.46691583  Gyration_radius:  2.45758312542 Dipole_moment: 2.735
 S           0.68246935064641    0.17391543570945   -1.80599501874638
O           0.56302360757877   -1.13625042685937   -1.19517969018598
O           2.02956254874102    0.61806920594997   -2.02955965937956
O          -0.17745006513243    1.15142856230145   -1.14343750858637
O           0.02663753582306    0.02497270043676   -3.26942447034944
H           0.78606150813310    0.00664793957370   -3.84355455824547
H           0.05717386021232    1.83275763679838    0.32152608254433
O           1.28115338989619   -1.54318540077525    2.13518936033155
H           1.98694977578954   -1.80325417253390    2.72826283529403
O           0.24574081161191    2.16406324166469    1.22976165742729
H          -0.02021566234753    3.08447950013979    1.24287612878353
O          -2.54709173111920    0.15220407146035   -1.70872202048383
H          -2.43048996468470   -0.19138648149839   -2.59688377336835
H          -1.73843184881851    0.68075687174908   -1.53832202249895
O           2.39015227153889    0.39233674230628    0.64726833652030
H           1.88265348382125    1.15459474139285    0.95614792274749
H           1.69926947713188   -0.95077280200145    1.47122078245812
H           2.39638161627858    0.43598964468123   -0.32176811690997
O          -0.87547625632123   -0.00500163812086    2.47292057995752
H          -0.08112065795563   -0.57124257228908    2.57683264306407
H          -0.53145778019119    0.85106221170262    2.15778885025364
H          -1.38800119520470   -0.75732638890367    1.21283390266344
N          -1.54928212829071   -1.32163253000471    0.31248837494467
H          -0.62657267279979   -1.34332015751909   -0.21549235524478
H          -2.20846249031693   -0.83652350103649   -0.33021867236262
H          -1.85317681398642   -2.26338245432416    0.53344039941569
