    26
        -50.43922916  Gyration_radius:  2.66122870727 Dipole_moment: 2.168
 S          -2.14905510390694   -1.36529437437742    0.96812374674811
O          -1.03130600950939   -2.16090263715065    0.59308010124038
O          -2.69080334426391   -0.48247779418726   -0.01966228859004
O          -1.86637833819010   -0.59601142718389    2.26444097035660
O          -3.29662242808791   -2.33743818913521    1.42549356084388
H          -4.09362428436385   -1.81276765361019    1.41754050110809
H          -1.62253390381120    0.39236151646429    2.09077471882045
O           0.97097319800299    1.35820951007939    0.51937174446849
H           1.61179742807635    1.62883278617429   -0.17909982476240
O           1.33894098497158   -1.27710147227654   -1.99065446881473
H           0.96004605751857   -2.13733920212809   -2.17671603417818
O          -1.17524157626572    1.79562274563504    1.91335034999566
H          -0.36896907004253    1.73344308754938    1.33813594333436
H          -0.86967064377794    2.12895205542893    2.76062879047446
O          -0.64201549281175    0.46406348267375   -1.56701388337260
H          -0.17646650517908    0.95084636110388   -0.86385306893829
H           0.57382615429174   -0.65465200003530   -1.93816717326941
H          -1.45730198028398    0.13293074974406   -1.16222056657740
O           1.53330260465766   -1.21591515081945    0.73951800531086
H           1.70679017412420   -1.30601883482059   -0.21780490155139
H           1.23197330726983    0.42892148922057    0.73538728878090
H           0.68746945128372   -1.67067439909860    0.86752084648138
N           2.58875446121743    1.55630166333740   -1.63782575697557
H           2.48441120410005    0.57818948377240   -1.88948109806163
H           3.57857324930782    1.76540491229105   -1.60870299467712
H           2.17313041664935    2.10251328120704   -2.38216450812097
