    26
        -50.46110576  Gyration_radius:  2.50479557372 Dipole_moment: 1.927
 S           1.49557615352866   -1.40066129885322    1.21019125886698
O           1.91610216129218   -2.01493471610451   -0.03050784034275
O           0.04127093013375   -1.35114475136782    1.33751993746377
O           2.10660731883929   -0.10204171336490    1.42582616774360
O           1.98623595555749   -2.34358299478106    2.38166235494140
H           2.91108835438764   -2.43847285983981    2.18004670134241
H           1.65140278461537    1.03558234005114    0.42077922324556
O           1.28931606032312    1.72940770122219   -0.19278920357324
H           1.93757114787566    2.43558832294300   -0.20199488854193
O          -2.85887894892669    0.83114489504489    0.07220778159615
H          -3.65675219555679    0.65281050341665    0.57038838579289
O          -1.05194849631049    1.71673653208141   -1.91015582649746
H          -1.83963886570407    1.80578965229393   -1.36545462406426
H          -0.29922872926598    1.89524268751607   -1.33567809309815
O          -0.81351894547334    1.17619247864193    1.67237126392092
H          -0.13080403261511    1.63865824159871    1.16764612978534
H          -2.15021632761587    1.03394657139120    0.74233908294821
H          -0.48703362778307    0.25979129459104    1.75449066664431
O           1.09730036017221   -0.47900102704139   -2.01640925727093
H          -0.40569479911866   -0.73671652554879   -1.58043300520715
H           1.27891913550683    0.41547160236649   -1.69749633796619
H           1.53829513860784   -1.09272162355973   -1.38948795031468
N          -1.21686897766035   -1.09121771268287   -0.97183043643478
H          -1.64835006911136   -1.90493899334389   -1.39609392180526
H          -1.91569460767587   -0.33672485776318   -0.80140704433279
H          -0.77505685802830   -1.33420374890895   -0.04573051484006
