    26
        -50.47039609  Gyration_radius:  2.41537116749 Dipole_moment: 4.727
 S           0.51772788523329   -1.70186471652290    0.98150765007647
O           0.76121351963027   -0.58616978495857    1.86123524690448
O           1.34667034773761   -1.70717086704635   -0.21326284257991
O          -0.89715372199412   -1.84864153579747    0.62965383907075
O           0.90208508415009   -3.00213382535393    1.79762836856048
H           0.83108660770028   -3.68698310778437    1.14163588103527
H          -1.00723849035172   -1.76249677184630   -1.01520100513416
O          -0.74834306426923   -1.62430161024216   -1.95550446830177
H           0.18062942791531   -1.88850224769952   -1.95304833507647
O          -1.39005031321441    2.12358717281360    0.24875884001684
H          -2.07574874406801    2.78184037455183    0.36723102059278
O           1.35863771598976    1.91744019854903    1.07029231109060
H           0.46238379874559    2.21915166130225    0.87029145175777
H           1.25080378761272    1.05346344872960    1.50955039191258
O           2.09126064872951    0.67706678179815   -1.14967979621819
H           2.05698450725665    1.24179563029933   -0.34121246438585
H           1.99301372155210   -0.24041421347848   -0.81647991197148
H           0.72838726012723    0.93256595975163   -1.72614408805406
O          -1.79927003338911    0.21875649280312    1.96907920050963
H          -0.97876662183519    0.22483139401269    2.48007241196193
H          -1.59418384181329    1.39302599991862    0.90523752811176
H          -1.71159781140497   -0.60914152290533    1.45365808116072
N          -0.33164493917835    0.98127271121432   -1.98840704754420
H          -0.82845797853136    1.45347102266843   -1.20728057084358
H          -0.64117493978888   -0.03305096518499   -2.05676714552379
H          -0.47725382279513    1.47260229048606   -2.86284453717125
