    26
        -50.47039595  Gyration_radius:  2.41531391366 Dipole_moment: 4.712
 S          -0.19206667118165    0.20623611462461    2.01190786578446
O           0.76599350298019   -0.87562790616911    1.84866425706918
O          -1.49591800681109   -0.07512305126517    1.46545398226393
O           0.36601792176406    1.46984387564362    1.52321096489926
O          -0.39383099025056    0.39053156740279    3.57069385726093
H           0.50020065603309    0.44954358607283    3.88945268305917
H           1.80817053444541    1.12522250672238    0.79314557536367
O           2.54818240863524    0.59886054593076    0.41207675579473
H           2.53280290920639   -0.19842766526592    0.95730427123909
O          -0.97270503770058    0.81936268337497   -2.20978096457036
H          -1.27994226804721    1.32009615563954   -2.96635240345770
O          -1.96845169964819   -1.47205719601624   -0.78690738571657
H          -1.96534791154518   -1.03758467045858    0.08625117708382
H          -1.80595003805717   -0.76626384821908   -1.42709266355036
O           0.45483282439236   -2.41926275776662   -0.30473237597090
H           0.57413946846167   -2.00808111473577    0.57792901526832
H          -0.50750167874656   -2.31927379316540   -0.49902915444363
H           1.03246466861310   -1.36528110359053   -1.20493275166520
O          -1.61510798696138    2.13534042191419   -0.06235451700990
H          -2.18712440374816    1.50945476380819    0.40119566737919
H          -0.80683076296235    2.12247381554832    0.49052181757754
H          -1.20944365829295    1.36702255700338   -1.40336398899036
N           1.38190584919827   -0.45862520471340   -1.70572727225011
H           1.92757737005389    0.06914001383859   -0.96197947598771
H           0.54463035171335    0.08804304210253   -1.98847137707415
H           1.96330264849963   -0.67556334884514   -2.50708353914845
