    26
        -50.46862857  Gyration_radius:  2.47483772406 Dipole_moment: 4.030
 S          -1.76363851164596   -0.47204335443560   -1.30828814081438
O          -1.27711421570385   -1.35118716788499   -0.23123684108775
O          -0.67245250595315    0.03475555372212   -2.09462054615999
O          -2.68005045404655    0.52981171385057   -0.80455206294813
O          -2.63375592065759   -1.40677896003982   -2.25232885877498
H          -3.48602991892780   -1.34851079130637   -1.83344492918066
H          -1.68894160999394    1.57340456578149   -0.08488483483916
O          -1.07760012641593    2.14731534380629    0.43907565466665
H          -1.37789824001255    3.04779884687414    0.30392292130818
O           1.60475392364308   -0.37274978373734    2.17459354972544
H           1.90779647262164   -0.53688719210718    3.06769561870073
O           1.97631000849284    0.22035539671222   -1.87435092483253
H           1.70626749120460   -0.93989478850017   -0.95446093625819
H           1.06842969375118    0.26812108944275   -2.22816615748109
O           1.66477229060372    1.76069357657541    0.27765025166666
H           1.80695614642075    1.15170909506596    1.01485818247854
H           2.01422040785569    0.93979164575977   -1.20145335580679
H           0.71237884456378    1.95780888686967    0.27828783373711
O          -0.97183470395852   -0.05341728990876    2.09784827475429
H          -1.22027405474042   -0.60573806019741    1.33008724114828
H           0.61099936832485   -0.24668097179146    2.22989925353701
H          -1.09787918306080    0.85703742993359    1.78961032230680
N           1.33155232481221   -1.64852175888001   -0.21279682443272
H           1.66628893117384   -2.58992352564493   -0.38134896304035
H           0.27386404552463   -1.60697079403690   -0.27136767428155
H           1.60287949612707   -1.30929868594060    0.72977196590761
