    26
        -50.47039615  Gyration_radius:  2.41529070614 Dipole_moment: 4.729
 S          -0.29262106921861    1.99115333901082   -0.27603828440432
O          -1.48582344925553    1.44208949747495    0.31799996210903
O          -0.00312877773563    1.47972746310834   -1.60616479099644
O           0.88159624062119    1.86813942626086    0.59194773313682
O          -0.55305778122487    3.54343415382439   -0.44098426438285
H           0.21150533936084    3.83103357111788   -0.92793911854371
H           2.02019326890542    1.00774545905978   -0.23780291419304
O          -0.16284047095474   -1.83200441587324    1.76567432204359
H          -0.08369660351428   -2.39630710300278    2.53563442603649
O           2.43424675527576    0.45744126631591   -0.94214052662232
H           1.96079696362955    0.74715896590908   -1.73264608550290
O          -2.33750460442586   -1.09655095209023    0.03345582651853
H          -2.21644372342703   -0.13585603347196    0.14931934388762
H          -1.76851008460809   -1.51033012866267    0.69631929385836
O          -0.80032446697531   -1.01403168382957   -2.11893517373783
H          -0.59229310624612   -0.05594774692387   -2.08491164763022
H           0.32998782132921   -1.59289188311532   -1.31745348273313
H          -1.55022716579591   -1.12949453241581   -1.48795425979985
O          -0.29391919449963    0.63122201529944    2.58450885150601
H           0.33309158860277    1.11994547573524    2.01290490360209
H          -1.14876878031321    0.91727490564938    2.23549458259339
H          -0.18154131821634   -0.89166823371818    2.11476509282403
N           1.14470303827402   -1.82312238585469   -0.62601961773420
H           1.79262010518955   -0.98250123554358   -0.68040095993722
H           1.62426551610207   -2.67738457573126   -0.88586407854000
H           0.73769394912335   -1.89827462856611    0.32723086662706
