    26
        -50.45462910  Gyration_radius:  2.52331706253 Dipole_moment: 3.156
 S          -0.24507089555908   -2.19134826530107   -1.30480859408233
O           0.75508278457885   -1.26536555758626   -1.78994262213301
O          -1.56093138110338   -1.56283847587508   -1.18314001082596
O           0.12812678229984   -2.86892469883565   -0.07821599859188
O          -0.39751961068082   -3.31053977349923   -2.40932250406383
H          -1.00614710836535   -3.90144024056815   -1.97985423271747
H          -0.01753173517582   -1.87331024781004    1.14933688205868
O           0.54387944029264    1.38762946154262   -1.79963518677769
H           0.65520022154063    0.49530462642821   -2.18016873766300
O          -0.02823541834873   -1.21531907711456    1.89466067226936
H          -0.07987810894837   -1.73268674967560    2.69982441688814
O          -1.34212210671749    1.12405767759076    1.51912164123671
H          -0.57932985289916    1.76556524693058    1.54668925047886
H          -0.96056484495124    0.24988985012701    1.73537077757268
O          -1.78982951346999    0.90839187841778   -0.91642431023927
H          -1.78130610648070   -0.11705215739037   -1.06579716865954
H          -1.68821161113198    1.03403169449676    0.14821487054736
H          -0.89973119760146    1.23053220953238   -1.32407835082294
O           1.82967231194159    0.11594424887296    0.30938601174908
H           1.09833650151106    1.34476019782478   -1.00246329543416
H           1.35936649207352   -0.29696398057673    1.04859619684731
H           1.70566421006242   -0.50640395501301   -0.42765737475157
N           0.83146612992503    2.68301625577092    1.38674720408876
H           1.52535193945415    1.98692688648275    1.12821695915314
H           1.14092763670370    3.13233850672823    2.23866106787795
H           0.80333507107183    3.38380444853493    0.65668242596021
