    26
        -50.45462851  Gyration_radius:  2.52322306302 Dipole_moment: 3.155
 S          -2.32703340629583   -0.91348517495139   -0.56022649513129
O          -1.21719707347012   -1.81648240437423   -0.77485905900753
O          -2.13847051507534    0.36161864955327   -1.25300011498939
O          -2.65419818639483   -0.70768909660993    0.83736668479333
O          -3.59160902069955   -1.58703896058411   -1.22553573412428
H          -4.27039233628374   -0.96633669960164   -0.98467628206868
H          -1.58328483893043    0.25664568776057    1.50275830224830
O           1.19699229564678   -1.12994285328433   -1.66037144425409
H           0.33924116937818   -1.59648835427935   -1.66434784262619
O          -0.85814370382747    0.78834827372626    1.92697771188319
H          -1.23765563562794    1.15836022812485    2.72553769083189
O           0.85812451990504    2.12949507355530    0.31635456334194
H           1.70468701373134    1.63784992225826    0.50573462592928
H           0.19371672578029    1.75847313749105    0.93079523937588
O           0.14209243980103    1.17287735703961   -1.86299869645922
H          -0.83742012543171    0.88741241897943   -1.68216801176100
H           0.45501893369544    1.67486227056075   -0.96252339909245
H           0.66402425075986    0.28460303966203   -1.88603473397562
O           0.73556155371032   -1.32642947048552    1.07287531786777
H           1.45489468531705   -1.17640164078313   -0.72449339877952
H           0.31236584767131   -0.62867620842130    1.59446521819732
H           0.00140150055477   -1.73362438706185    0.58173624057395
N           2.98611229426298    0.56561477016569    0.75984411672153
H           3.52442122359154    0.34003417473967   -0.06730317457782
H           2.51435335513561   -0.28003410600051    1.06844882208686
H           3.63239702307843    0.84643437276075    1.48564386294246
