    26
        -50.43242833  Gyration_radius:  2.56267772881 Dipole_moment: 4.457
 S          -1.33299639075258   -2.10406995335053   -0.18889149052003
O          -0.10070731521453   -2.41909856432230    0.64094675000376
O          -1.02069820156890   -1.39409801106714   -1.38667852181754
O          -2.33073204768744   -1.48133240272492    0.64045300800704
O          -1.82952814959287   -3.52841214000548   -0.58271323158536
H          -2.01362278129281   -3.99686929557894    0.22829159426643
H          -1.95880939402468    0.11602861925790    0.93312425049110
O          -1.54739416550265    0.99239033660095    1.09975875167608
H          -2.04468737550904    1.39204150717011    1.81692689392362
O           1.87469609265422    1.05561484246802   -0.97186559864597
H           2.47633101343938    1.52437439099848   -1.55133048746291
O           1.74978158034432   -1.70995755076074   -1.70179735165983
H           1.98226324104091   -0.79293768318281   -1.50556353432497
H           0.79125040280115   -1.72578545823077   -1.79182532442130
O           0.89821461350042   -0.21894011379379    1.23677859739954
H           0.41299919471686   -1.53831546131631    0.90520198199756
H           1.45125761056074    0.12780939070402    0.51232941807636
H           0.10799202444249    0.35644073518457    1.27603648882740
O          -0.68415350568187    1.32563903142054   -1.57323798611125
H           0.95630988525041    1.25079286618810   -1.29020714104856
H          -0.88866428878752    0.39930904019252   -1.77207938722681
H          -1.11330699008677    1.50497116674381   -0.72628465225838
N           1.09178450856957    2.98541786499508    1.47584004092217
H           1.64976648828545    2.60108299874542    0.72278920593166
H           0.11935149444294    2.82608898490668    1.24405473667290
H           1.30330245562914    2.45181486875708    2.30994299889232
