    26
        -50.45611348  Gyration_radius:  2.53582989935 Dipole_moment: 6.287
 S           2.03094917685454    0.74294589792682   -0.39362290693785
O           1.38040154998616    2.03336856194278   -0.59916759381423
O           1.63964364308922   -0.22611801492501   -1.40334790098159
O           1.87547990144229    0.26573032223837    0.96502488879593
O           3.58403455251701    0.97446319110140   -0.61411838598336
H           3.88976784197293    1.43876367673183    0.16051895943354
H           0.37558208987864    0.86998697447986    1.36831434673365
O          -0.49828070400183    1.30186470679127    1.48348071777495
H          -0.32213985032483    2.24283167306119    1.42540996229519
O          -1.64881145810317   -2.14910457340166    0.11487787505962
H          -2.00032406597902   -3.03937608811070    0.09247060240885
O          -1.68798921900285   -1.03185759582936    2.77213448047655
H          -1.75890749747929   -1.46920991619042    1.91358568049684
H          -1.29688249056333   -0.17036022894159    2.59633141240354
O           0.98541705506889   -2.25597232621567    0.20991178169981
H          -0.66093743913268   -2.23694616922365    0.13704462908095
H           1.29143806121616   -1.66404754141106   -0.50089507589844
H           1.25430956812617   -1.80397554776994    1.01791375062266
O          -2.23609906132602    0.43183855442742   -0.38824065188051
H          -2.19870526542853   -0.53652781003467   -0.27068476308318
H          -1.76549316113522    0.79026798949585    0.39466314208974
H          -1.30209398692322    0.81911991466700   -1.48533534682329
N          -0.47260002229510    1.10878783650036   -2.13840758437069
H          -0.77645818064078    1.48720128045596   -3.02871535295422
H           0.17509199593883    0.30552905608597   -2.23785437365099
H           0.14360695624627    1.77079613614602   -1.59129230299208
