    26
        -50.45614755  Gyration_radius:  2.45118741702 Dipole_moment: 3.901
 S          -1.74408331906751   -0.07429737567268   -0.66896564661028
O          -3.02744475601953   -0.60456085012359   -0.31205919810475
O          -0.59696618201364   -0.87625878124827   -0.31874887893118
O          -1.54540524118083    1.32855312369335   -0.27958894532998
O          -1.72320467882761   -0.04586241309974   -2.28903490394410
H          -2.63754694993905    0.09983278803783   -2.51482834902844
H          -0.09066075352287    1.67698080176745   -0.32243124909589
O           0.92147641420152    1.78854751710267   -0.43640070722946
H           1.13439419222416    1.20898069204358   -1.30581170268167
O           0.21139912268122   -0.45126532799543    3.04607258769432
H           0.20930889100046   -0.05688446796780    3.91978775208310
O           1.85418253065295   -1.82036579057343   -0.30818541194070
H           0.90973841850093   -1.55483935279304   -0.32843449698058
H           1.88162001582995   -2.64062662022003    0.18741797179495
O           2.02989517305970    0.36441633176989    1.29009430419721
H           2.16923846051202   -0.43842983144520    0.74726981541505
H           1.39013485393125    1.25265361488306    0.35403819902398
H           1.37501911233561    0.09182734181840    1.97661497607866
O          -2.19744138181047    0.27801261220887    2.11405734200786
H          -2.72726673935364   -0.33643117908520    1.58922580606112
H          -0.68310200383045   -0.28570434102732    2.67502548083754
H          -2.00014199935993    0.99112926768682    1.49035992902216
N           1.23990384776846    0.22900349102547   -2.41258839828105
H           1.61064432787806    0.50035858027047   -3.31352490186852
H           0.27183392123234   -0.05981719279910   -2.51966139879580
H           1.76447469312714   -0.56495262826385   -2.05969997539610
