    26
        -50.45614796  Gyration_radius:  2.45121540941 Dipole_moment: 3.885
 S          -1.05973491360781   -0.13272615574214   -1.53476397221770
O          -2.41923299806082    0.07389495961956   -1.94062205573516
O          -0.85844389224791   -0.66684838921988   -0.20972267642092
O          -0.17967349163878    1.01830733188957   -1.77902297013687
O          -0.48614450167061   -1.28877032145459   -2.51462906949105
H          -0.96273074813998   -1.14122428706122   -3.32654342201437
H           1.08288214998554    0.87991902292963   -0.98827927225341
O           1.90873178159819    0.63794229800908   -0.43192053212690
H           1.99054519190556   -0.41669605331045   -0.56225679623632
O          -1.14821307078057    1.85700151441617    2.18011209211846
H          -1.20068653950083    2.74496440150904    2.53745628063852
O           0.28925102716895   -1.83159939942090    1.84663273160338
H          -0.36638755538924   -2.01097097965760    2.52273863967155
H          -0.20851341735261   -1.45855569294969    1.08783990356888
O           1.23682447798569    0.70636264465098    1.97234629950445
H           1.01930865625953   -0.24126191902333    2.08858648298936
H           1.64555966513517    0.75352745718006    0.59249151900240
H           0.37346970527394    1.17481190699119    2.07025806851869
O          -2.09440931725760    2.21194412083288   -0.30605233792172
H          -2.67283181059191    1.55135490859897   -0.70971326664664
H          -1.55652751321543    1.90246447784909    1.28770785243356
H          -1.30321220127204    2.18522094043228   -0.86253603386165
N           1.82685759535915   -1.88080533859093   -0.73262351556329
H           1.59048001439532   -2.26305484727305    0.17729235806891
H           2.55769532852508   -2.44119804270937   -1.15045805603161
H           0.99513637703972   -1.92400456844279   -1.31431824139988
