    26
        -50.45614806  Gyration_radius:  2.45139570746 Dipole_moment: 3.885
 S           0.42425026124063   -1.21733916119266    1.35539385777830
O           1.35460110984625   -1.36312189440568    2.43646499945666
O           0.92512654735293   -0.59091623087225    0.15612258017090
O          -0.86871218079353   -0.64186194620754    1.75083539084133
O           0.06309410054047   -2.72611144382854    0.88785340552533
H           0.12624698138407   -3.22529697329889    1.69712690177282
H          -1.61263414516037   -0.16354798824151    0.54405017135463
O           0.97751659059331    2.87989947231080    0.52450445469408
H           0.78632152833603    3.73868580586580    0.90508227280671
O          -2.02476416302989    0.07745883215613   -0.36266973378758
H          -1.71510052411792   -0.72457716359543   -0.99265091554558
O           1.12708221779436    0.14890751364151   -2.35670607176009
H           1.13815643754340   -0.16115747572865   -1.42587029813763
H           1.98818759108596    0.54207478168975   -2.50845673306733
O           0.78415186513038    1.27755710989521    2.66852265640005
H           0.99943640110129    2.25110176893735    1.27906539893419
H          -0.06702875186622    0.83247497290367    2.55058833085211
H           1.40264513026172    0.54557901729479    2.79258357215659
O          -0.65451707227561    1.92256147745083   -1.33968461886491
H          -1.49527541999663    0.92101677668714   -0.73707968398241
H          -0.07679252511001    2.32075263175928   -0.64531881499407
H          -0.04876067150897    1.37976194627650   -1.88487504992173
N          -1.04621390781602   -1.82599741901522   -1.72661613923434
H          -1.58489874977491   -2.52138890944195   -2.22565006867203
H          -0.52336006706007   -2.27630353033308   -0.98105962795495
H          -0.37875857362861   -1.40021195070274   -2.36155622682049
