    26
        -50.43955922  Gyration_radius:  2.49300797016 Dipole_moment: 5.244
 S           1.95533266552551   -0.11524330245960    0.56111584065156
O           0.88765074536056   -0.66695949519873    1.34067139074816
O           2.09695615660896    1.33833287644254    0.76373625798670
O           1.87087252606998   -0.40319378659924   -0.86677095341960
O           3.30283176200089   -0.74993957782520    1.06076922240244
H           3.92883207267417   -0.43241234405988    0.41820951951216
H           0.61983431515251    0.14594708222455   -1.58847103837559
O          -0.16215215476246    0.63369265780025   -1.99017295203741
H           0.05245482192571    0.74751239647397   -2.91842474651868
O          -1.62723965879602    2.13808544819837    1.50041441010576
H          -1.32535714507883    2.38685026536574    2.37617488007117
O          -2.23028338740237   -0.98445190221958   -1.08925059630975
H          -3.04791528964226   -0.74833404486625   -1.52949111823483
H          -1.52284133684411   -0.44545854101023   -1.48204456780134
O          -1.76598852933101   -0.41147265089876    1.54250245843797
H          -2.04816283211490   -0.74167694446984    0.66964484608443
H          -0.81727243943822   -0.62985254252573    1.60120418123137
H          -1.76281236980445    1.12870552141159    1.52885101897957
O           0.16090183231132    2.49626917042085   -0.20402595992754
H          -0.06645582384081    1.88717644102007   -0.96772308920280
H          -0.61648523173327    2.39498721324019    0.51763118280190
H           1.04383774816473    2.05796026169604    0.24044280352308
N           0.32493902413221   -2.99690401238838   -0.52285077373466
H           0.39619261142315   -3.13868651478849    0.47810482725856
H          -0.61206274635220   -2.64987501064494   -0.69754714379058
H           0.96439266379424   -2.24105865435262   -0.74269990046988
