    26
        -50.45462883  Gyration_radius:  2.52335983807 Dipole_moment: 3.150
 S           1.27941390254459    2.13964514089469   -0.59146525259574
O          -0.15072268026793    2.37203682567829   -0.79651222894184
O           1.72832345472194    0.92307686400036   -1.23316937468654
O           1.62917645666586    2.22571024000894    0.81316369790075
O           2.02183532893343    3.33170747108677   -1.31505530089815
H           1.72461490877615    4.06854450352491   -0.79273396657123
H           0.68072608886212    1.27389945379111    1.65806281033800
O           0.13915327417073    0.61016381173530    2.16279879887897
H           0.16421520374290    0.89389520798219    3.07801756223668
O           0.16773057131561   -1.06054947262210   -2.07561046161466
H           0.82251011046797   -0.33985788401208   -2.14982037071099
O          -2.06234690623264   -0.42130578068395    0.96799461377378
H          -1.34723552055278    0.01159230212756    1.47579159393074
H          -1.78645274426446   -1.37466402892257    0.87186282393968
O           1.34912077471865   -1.20648640217226    0.43771709695063
H           0.43907720877596   -1.50497408189518   -1.25509668444455
H           1.75971557476879   -0.49577664550539   -0.08402062661549
H           0.99823945572733   -0.75320877462400    1.21841094033915
O          -1.70074215916101    0.48613460124108   -1.31735351042624
H          -1.11794735315401    1.32578318466426   -1.14614836480192
H          -1.04394418073904   -0.20035618945593   -1.71605956907383
H          -1.95153071159934    0.11826145477203   -0.33621852653395
N          -1.08273639483742   -2.88228647859614    0.57498811114116
H          -1.28826409106770   -3.27666108697556   -0.33451817533070
H          -1.28413793176500   -3.58637933297948    1.27296476667815
H          -0.08779166049955   -2.67794492307438    0.61200959714250
