    26
        -50.46862856  Gyration_radius:  2.47486706312 Dipole_moment: 4.021
 S          -0.37798922898607   -1.73721456436158   -1.37236974529782
O           0.02650214390520   -1.87223711008865    0.03738650956740
O           0.39780658892120   -0.72693612914426   -2.03831816406773
O          -1.81379356765987   -1.60071372726484   -1.50332961800709
O          -0.02113194480082   -3.12978002598467   -2.04730849480523
H          -0.81861749719206   -3.62240067427916   -1.88467521948296
H          -2.05807316812333   -0.07766888636965   -1.04515869510908
O          -2.20051352891313    0.82365561315765   -0.66444566612342
H          -2.88376338034151    1.23243027631513   -1.19860407193055
O           0.40803732160426    1.14773185417434    2.44165912863666
H           0.33985327995824    1.36157302900435    3.37226251993086
O           2.01002325123990    1.27657280287238   -1.34163402426766
H           2.12942395953635    0.39547095290397   -0.12674496124130
H           1.50798498921337    0.63028171022936   -1.87267157795040
O          -1.51505056963732   -0.43020871732478    1.69459534391853
H          -1.03410876090811   -1.09633991836322    1.16429687987414
H          -0.37112767845000    0.55271734933774    2.22846186370041
H          -2.01430678215743    0.08249280886960    1.04064494835123
O          -0.02383995301838    2.43740664482084   -0.06940134337818
H          -0.79386036021111    1.91358281645333   -0.34974391767705
H           0.12630308247138    2.20738156615607    0.85743947045532
H           1.32557444919634    1.90178903857050   -1.00663577135466
N           1.98280107063950   -0.26422494293767    0.73089467385108
H           1.57039119062816    0.29153437028466    1.50444187588514
H           2.84321694091225   -0.71792475075374    1.01470599140569
H           1.25825815217202   -0.97897137627913    0.43425204511826
