    26
        -50.46656023  Gyration_radius:  2.45829541864 Dipole_moment: 4.219
 S          -0.70282340944311    0.12472151859893    2.00578211967701
O          -0.23302959947326   -0.98842262258354    1.19494426912633
O          -1.78255119592226    0.86397939214851    1.38210248901268
O           0.37733120061777    0.98171971120373    2.45611042599830
O          -1.31561227988231   -0.54295926533123    3.30728166733348
H          -1.59202548335213    0.21698795744681    3.80826662105495
H           1.40059540191713    1.48963315683625    1.35214817481271
O          -2.39263328823466   -1.17971187566670   -0.31795382526592
H          -1.59760708507906   -1.33336631137074    0.22896771129307
O           1.97761829952669    1.75539403015387    0.58651949075432
H           2.55164308301633    2.44848724692351    0.91600719974610
O          -1.08749304348794   -0.06689378528836   -2.31976307940369
H          -1.70134734003102   -0.53450226852170   -1.69552689090938
H          -0.87207816999465    0.77852930371003   -1.84797931020292
O           2.13430978139380   -0.90032249589884    0.07421615908803
H           1.53607252123005   -1.22051424400146   -1.28778155027937
H           2.31077199089593    0.05403691491047    0.16313351360989
H           1.32911745937046   -1.04147900462257    0.62232212389119
O          -0.48462791255443    1.91950693911840   -0.71182446365014
H          -1.02064490034830    1.65711384032117    0.06124382345431
H           0.42944938836066    1.98065459877469   -0.39689255491604
H          -2.78967647076547   -0.40764054269353    0.10432279091556
N           1.03047137654855   -1.47043606668852   -2.21200511915444
H           0.09637688686281   -0.83791612153206   -2.28438978217086
H           0.76140987159923   -2.44863733355721   -2.18281212321308
H           1.63698292723157   -1.29796267238248   -3.00643989060475
