    26
        -50.46656048  Gyration_radius:  2.45789928526 Dipole_moment: 4.199
 S          -0.07247157913434    2.04004107263352   -0.59737494353735
O          -0.99510519661325    1.52238784934708   -1.58826606801919
O           1.03087449681611    1.13313984522383   -0.31905477400836
O          -0.73947072843152    2.49352576998304    0.60813757082336
O           0.60129373314415    3.32161332812722   -1.24452649452588
H          -0.14895333128880    3.88772021610854   -1.39140362163216
H          -1.18462161524747    1.37801885489346    1.64891779376032
O          -1.42647016300380    0.60464080586690    2.22586978083826
H          -2.01489263351401    0.95045762971444    2.89871438347725
O           0.81745613249467   -0.27873490000088   -2.54399236077022
H           1.11448179516232    0.21709557733628   -1.75613045031264
O          -0.25202697013157   -2.26316084625285   -1.17720335067741
H          -1.02310677125218   -1.74698202413427   -0.82696378622559
H           0.17139433595965   -1.64219485283580   -1.82545009844542
O           1.18218162326508   -0.09249460607737    1.99248604389239
H           1.32145011109468   -1.43996713790262    1.29803087317631
H           1.25186732294470    0.48448060632331    1.19824607819477
H           0.26996588007941    0.05042756055191    2.30388105433222
O          -2.01414662516756   -0.55730835939002   -0.23926430162176
H          -1.92758316439614   -0.28402561722203    0.68616717051534
H          -1.77131830346567    0.22185919991004   -0.77568139450095
H           0.03263376342037    0.21313282948607   -2.81583325516761
N           1.43610520861725   -2.34985186803317    0.72287960042868
H           1.29764063241046   -3.16297389931534    1.31310531002802
H           2.36675885056898   -2.36496181386538    0.31826149846529
H           0.67606316562092   -2.33588524044056   -0.11355226851178
