    26
        -50.46656048  Gyration_radius:  2.45824324237 Dipole_moment: 4.217
 S          -1.84778017017497   -0.71891904214309    0.77440935723090
O          -1.38900082522681   -0.04472506129303    1.97286292657816
O          -0.77165591330499   -1.36496567012763    0.03834923746245
O          -2.66865687225295    0.12993803949128   -0.06791841221706
O          -2.78319389371786   -1.90338833356378    1.26138899611927
H          -3.47679120730581   -1.43492511617445    1.71343268791257
H          -1.90977403497614    1.18542894126527   -0.98182924164860
O          -1.34091273211770    1.81073816399974   -1.50621682204807
H          -1.93977717768010    2.44956828283465   -1.89572210879962
O           0.94153234623210   -1.45804561302621    2.04975439710019
H           0.39464229505001   -1.62638039279710    1.25777834223107
O           2.31602529434348    0.51613831321136    0.97133043371081
H           1.57262841966629    1.17276113179884    0.96788521568388
H           1.94888660454642   -0.25168871801982    1.48202167919994
O          -0.00146731328296   -0.41412143024686   -2.27915749475894
H           1.44593473522575   -0.36343259664977   -1.81182299597599
H          -0.38384580571897   -0.89634017920820   -1.51111046597340
H          -0.41752446588335    0.46583836813057   -2.23080701135311
O           0.09044927202933    1.90676031754406    0.88457524226780
H           0.33312116676046   -0.97588826509142    2.62375412999522
H          -0.32366824530026    2.04071489887294    0.01911006102185
H          -0.49138036801351    1.29117189096692    1.37085591118855
N           2.44898578772148   -0.38038486740323   -1.40475070233552
H           3.07574948103799    0.17079240542761   -1.98101244645659
H           2.76788655616396   -1.34298463861011   -1.36241165038497
H           2.40958706618662    0.03633915081278   -0.35474927574117
