    26
        -50.46656038  Gyration_radius:  2.45831222863 Dipole_moment: 4.222
 S           2.10910784097798    0.03591275105068   -0.28800596749035
O           1.72766324758005    0.04120936545667   -1.68646907004933
O           1.24222034278480   -0.79447671778197    0.53429267503976
O           2.27949123249893    1.37112606492136    0.25252087567219
O           3.53305488926835   -0.65893720116856   -0.21820635179343
H           4.06507445505915   -0.07407211906473   -0.74710555695607
H           0.95850952972773    2.16232619049714    0.64409103398400
O           0.07495270125934    2.57077903286811    0.84953219271568
H           0.24691914507570    3.49629254635482    1.02920920267799
O           0.26613614894373   -2.24894906726884   -1.44568480987166
H           0.62159621184460   -1.90632699664565   -0.60243290076915
O          -2.00851710457336   -0.92525586732792   -1.29564842024024
H          -1.62064599392373   -0.02880887402888   -1.46800922811947
H          -1.24877947256926   -1.54435197006250   -1.45282751672325
O          -0.39024563963988    0.30703751470529    2.26340440473334
H           0.33032141538965   -0.13933659806205    1.76329840813074
H          -0.36872311046377    1.22348311768526    1.93251998135959
H          -1.57144628290248   -0.45604942014777    1.68205137190332
O          -0.63330994046129    1.29935746239570   -1.52916915957661
H           0.74740494233643   -1.72834863272493   -2.10099567820829
H          -0.53632613209829    1.85221675264215   -0.73961860958936
H           0.24803828110919    0.91516125446973   -1.70083656050272
N          -2.34943066740176   -1.05165379387685    1.22126665004648
H          -2.23411682884274   -2.01817932625213    1.50868083828444
H          -2.22364691779026   -0.98791509748408    0.09962828972541
H          -3.26530227321333   -0.71224038117024    1.49451392561153
