    26
        -50.45028643  Gyration_radius:  2.6409738525 Dipole_moment: 5.315
 S           0.04579621758981   -1.30861311203392   -0.87824694780407
O          -1.36891275493898   -1.33899786384748   -0.29151940962336
O           1.04025390616350   -1.38732482337047    0.14282379630049
O           0.15668338904038   -0.14607208510195   -1.73936609628147
O           0.07748503397987   -2.57820729680954   -1.73801113190936
H          -0.63349043470628   -2.39593603502777   -2.44706261857673
H           0.26840469143070    1.29458559572305   -0.93559279436697
O           0.16505233476243    2.11724738878824   -0.40530578177919
H           0.24640473297947    2.85013691237428   -1.01791904487549
O          -0.37987799721488    0.60742856468928    3.22223047880697
H          -0.67002855047101    1.15584376775151    3.95259617510067
O           3.16639966677647   -0.19848652158303    1.30615729403184
H           3.36633987789201   -0.78661713405358    2.03686358812174
H           2.45388036411368   -0.63629017677579    0.80685528678258
O           1.58478388276681    1.87684357317045    2.01595415583648
H           2.27085768749899    1.21060229915526    1.80528929538191
H           1.16741296559546    2.08366363384538    1.16695194997004
H           0.42196788521526    1.05690707813351    2.84233693578710
O          -1.76219798042122    0.75610067183880    0.99628047992712
H          -1.57927817687233   -0.47392182879833    0.28465655308315
H          -1.33094206358082    0.61603488952075    1.88300014780744
H          -1.19272902702380    1.39949731894955    0.53723714084533
N          -1.72441035919285   -1.62893434991066   -3.29807914575028
H          -1.87705744984684   -1.77071872117684   -4.28777516650568
H          -1.29943187679304   -0.71994514477514   -3.14398931869567
H          -2.61336595468691   -1.65482661067344   -2.81636583160689
