    26
        -50.46862774  Gyration_radius:  2.47502111683 Dipole_moment: 3.990
 S          -0.98228374974670   -1.96423401046439   -0.47160251138279
O           0.28481991154107   -2.17523995851079    0.17360097769271
O          -0.91834365071195   -0.82621726581623   -1.40418363144535
O          -2.11946241908351   -1.86054726938059    0.41924510392339
O          -1.27076787880521   -3.23577677598112   -1.37856837048551
H          -2.22205879543636   -3.24297946209887   -1.38599936025759
H          -1.63623133578652   -0.72934361102899    1.45690749422196
O           0.55247648246867    2.63484488495740   -0.45514794884252
H           0.46031849344410    3.56125017962443   -0.67804204482826
O          -1.36487339703693    0.03534320322542    2.02186834706836
H          -1.66112135802871   -0.17247911406355    2.90971731688390
O           2.55441779951445   -0.82177619459795    0.51150768048455
H           2.03310990274893   -0.16732965648426   -0.73949888370331
H           1.88343716028322   -1.52985459034239    0.52940948658544
O           1.20702460123102    1.05859013750947    1.83441995431199
H           0.33114207636234    0.65682009179594    1.96597144196269
H           2.23219309222212   -0.16352004412494    1.17073621784533
H           1.08023324544641    1.75390163963189    1.17490328452996
O          -1.76347731210221    1.46890591466001   -0.30001791040376
H          -1.83404536699735    1.18227668630812    0.62336393560667
H          -0.37712805928148    2.26171691724196   -0.39967547836001
H          -1.60592937439889    0.64247361946619   -0.79847797775853
N           1.44845113539317    0.30312306977213   -1.53293483527688
H           0.51822721991734   -0.20473714605438   -1.55555091976298
H           1.91216158179570    0.24871040607815   -2.43220436341537
H           1.25771000507662    1.28607833867198   -1.25974699519676
