    26
        -50.44582485  Gyration_radius:  2.68651565176 Dipole_moment: 3.267
 S          -0.34410668897750    0.92231419104520    2.35363748352125
O          -1.05098939359106    1.59645693775159    1.28751317788983
O           1.01098057870923    1.46887996575866    2.53690187030819
O          -0.31839960573326   -0.51869678160943    2.21586505126023
O          -1.11463964309641    1.24868447889238    3.69160504846918
H          -0.64328222254433    0.72882332617901    4.33517446269710
H           0.48243502701381   -0.76871179713546    0.80124418911220
O           0.93731800631512   -0.69622889644989   -0.06909518389748
H           0.89463143488440   -1.60839823293015   -0.48822224455527
O           0.28789255719544    2.82087334741474   -0.63977647594782
H          -0.27088670759318    2.67022059688412    0.15347649271830
O          -1.80545039864973   -1.77745308230828   -2.60566963068090
H          -1.67777870827220   -0.91432125818591   -2.16810450707879
H          -2.11012122479617   -1.58429202292841   -3.49302386606526
O          -1.08594725210702    0.54848949642060   -1.31338261930850
H          -0.30987322093305    0.04848442220098   -0.97578947452610
H          -1.55069396732328    0.81836296936666   -0.50944053485781
H          -0.12511861005773    2.24738979615331   -1.30973043877433
O           2.15968794288589    1.47584720213133    0.36219470764611
H           1.50437287388658    2.12217746327754   -0.14670448150031
H           1.77809753085622    1.52106890058524    1.36446742582644
H           1.88042855770588    0.54240911920303    0.07964302932471
N           0.48282235503616   -3.01430729313833   -1.24073151048367
H           0.18505509838423   -3.70991628486157   -0.56842022274638
H           1.14125010143105   -3.44989479926414   -1.87369976387251
H          -0.33768442063598   -2.73826179447396   -1.77993196450874
