    26
        -50.44582471  Gyration_radius:  2.68654526159 Dipole_moment: 3.275
 S           1.13600108402402    1.99437274514172   -1.11381378812919
O           0.42116403794425    3.04948561748376   -0.37599650333032
O           0.23720573976515    1.21986663225795   -1.94038502653597
O           1.95243232309057    1.19075973574060   -0.22838314629034
O           2.11659174335817    2.75323703980083   -2.09016092484949
H           2.71855896696648    3.18083826229874   -1.48898789323657
H           0.86025565621618    0.42837435032298    0.73663475679976
O           0.05759398038185    0.05389524732489    1.16694997649949
H           0.37024658440706   -0.72322792584757    1.72181926918934
O          -2.33851664992415    1.07994285608585   -1.34832523883332
H          -1.50027829484710    1.30912541223600   -1.80564790973572
O           0.01665462290519   -3.63370988854162   -0.06897914819774
H          -0.28323594013284   -2.82692025287245   -0.52928858834576
H          -0.60165411814376   -4.32415305349839   -0.31101115875043
O          -1.47731926334082    2.03300134287928    0.81189554726580
H          -0.97291197007908    1.23045304383237    1.17314669396621
H          -0.68658416091472    2.59659409917429    0.35398393570023
H          -1.99822675035066    1.67236130369948   -0.02761876389779
O          -0.85031391183022   -1.19758556436655   -1.02408465097434
H          -0.30772477944750   -0.70578965376155   -1.65565606265100
H          -0.58272471188145   -0.82954576670979   -0.15275383509229
H          -2.27972267300146    0.11229788668453   -1.25668183749662
N           0.90507162075021   -2.16409059157441    2.31379687272742
H           0.51400062497346   -2.52228643110619    3.17556155017064
H           1.91356428151588   -2.16714440280576    2.40034389259251
H           0.65987195760812   -2.81015204387895    1.56364199143030
