    26
        -50.44582472  Gyration_radius:  2.68630268953 Dipole_moment: 3.269
 S          -2.21183850258707    1.20587357522767   -0.39980768819321
O          -1.23996297205125    1.89665701317950    0.41808665516002
O          -3.05871810583648    0.30886970704949    0.40445983833749
O          -1.63365825838621    0.51235226903597   -1.53162363493669
O          -3.18853682014026    2.30368274434377   -0.97548522838483
H          -3.75351635641116    1.79809074903784   -1.55151643995522
H          -0.62686612710495   -0.59388811948569   -0.84793424538893
O          -0.06649133088278   -1.14087672684654   -0.25090054619485
H           0.60951099360234   -1.59822118177389   -0.83693769547369
O          -0.46952341983188    0.87173395564652    2.73391922259355
H          -0.89819583228521    1.45781522947907    2.07294506191115
O           3.51618412407470    0.23167270624016   -0.88595160593575
H           4.33796355963193    0.39255005206295   -0.42076885166622
H           2.80842378330345    0.59666175257281   -0.32147891785129
O          -1.60667970912217   -1.14513427891207    1.75563162991942
H          -2.34731241952574   -0.58161304900007    1.22013373809090
H          -0.95311028049627   -1.37778412996315    1.01544014536701
H          -1.12851535737378   -0.39445918816314    2.31560840615539
O           1.37020915616892    0.91227576029366    0.70382230147371
H           0.94758909411010    0.08515494993805    0.38202973784799
H           0.75975517881851    1.60616248118126    0.41928180373671
H           0.45366772317692    0.83441257828018    2.42651050524000
N           1.87378331397395   -2.02405062295743   -1.80266448232657
H           1.62767610756756   -1.93559030371280   -2.78044808300783
H           2.31847819656102   -2.92321723936681   -1.67003731533232
H           2.55968426107040   -1.29913070339604   -1.59231431116773
