    26
        -50.44582473  Gyration_radius:  2.68646903011 Dipole_moment: 3.273
 S           0.08809124502911    2.14073733017228    1.38480287695288
O          -1.11181767446399    1.92469452560652    0.60737086015673
O           1.12780875943094    2.82596218819016    0.59855554164567
O           0.60300297174094    0.93982240534891    2.00852508326077
O          -0.29163024828193    3.14126075113648    2.54457229606474
H           0.51198005214733    3.18379429424816    3.05348773233213
H           0.95698823505812   -0.04634987723506    0.74056523077050
O           1.05765061171026   -0.48149466240764   -0.13701211542647
H           1.22824806304217   -1.45437299954972    0.04714122050657
O          -0.99380170780619    1.82370096814388   -2.03484878010154
H          -1.18019732606755    2.13818519605875   -1.12348305290491
O          -1.73047987071329   -3.19345777893057   -0.11534487540665
H          -2.34279374769802   -3.62810554339096   -0.71008886904307
H          -1.80241246273563   -2.23808814671651   -0.30190357539241
O          -1.56120894065752   -0.50819943028270   -0.71324668501614
H          -1.35074953076193    0.91774875537415   -2.03055846764804
H          -0.59163450442742   -0.60218977996822   -0.58139295435155
H          -1.81829037797193    0.15025956804582   -0.05334181333258
O           1.45464130991851    1.60491161423119   -1.51111795359701
H           1.41533125117803    2.22136255250285   -0.63301069882316
H           1.46893014130666    0.67470377448597   -1.10664422596828
H           0.48332152519935    1.71940121881577   -1.89765527504160
N           1.15497003918962   -3.05754615123548    0.41778811758978
H           1.69547888540219   -3.71764162072563   -0.12627905072291
H           0.16679675819181   -3.26691558754035    0.27663057074751
H           1.36177656304714   -3.21218356440301    1.39648886273396
