    26
        -50.44582475  Gyration_radius:  2.68625862321 Dipole_moment: 3.270
 S           1.29874452382005   -2.07143232146599   -0.72671525035499
O           1.51656693246829   -1.61626347198940    0.62831192915160
O           2.20115710285655   -1.39926897736630   -1.67676403468011
O          -0.08099496368682   -1.98362573910216   -1.15648182008747
O           1.70349733680651   -3.59619737884509   -0.76793939351932
H           1.47521083587108   -3.84812310488251   -1.65735276901001
H          -0.42261759803576   -0.37717405707920   -1.06923534748054
O           2.58784025183487    0.76095998743755    1.08484527491894
H           2.47722402739090   -0.21266318858644    1.02198983663063
O          -0.42975262614740    0.59466979869726   -0.91073737866504
H          -1.39159388673755    0.88206758108302   -0.95426969804817
O          -2.71138215373320    0.96951029817635    2.21582984853171
H          -2.80433963604739    1.50823456125185    3.00242617214494
H          -1.76922939132944    0.71891510748230    2.16784584673050
O           2.02277699956140    1.03157603467308   -1.34939001300626
H           1.01040905175578    1.06808047431460   -1.29487095393539
H           2.35089866497783    1.06877329779761   -0.35110202770784
H           2.18837786356194   -0.00015542996571   -1.59655279328067
O          -0.05188939214948    0.42615640892069    1.73869956041684
H          -0.24858240123098    0.60261704139801    0.79188563289312
H           0.26046663930860   -0.48901908859530    1.74021650318962
H           1.79496769264302    1.03952712367471    1.57672067384928
N          -2.98620917259456    1.20443445775864   -0.69885760530336
H          -3.05627693861301    1.15470048888117    0.31741895076013
H          -3.56870669910246    0.46979907957062   -1.08031378251754
H          -3.36656305341330    2.09390100681713   -0.99560739162859
