    26
        -50.44582473  Gyration_radius:  2.68633678884 Dipole_moment: 3.276
 S          -2.20632774004055    0.85728750334335   -0.95059964124290
O          -1.65473285583065    1.47522932697731   -2.16818259376333
O          -1.72246162709548    1.51107340943674    0.24493935991919
O          -2.01000202958724   -0.57720726299761   -0.95087198934309
O          -3.76209421493856    1.11394792042494   -1.01495520853514
H          -4.02564630148394    0.60316235882518   -1.77405984034879
H          -0.37715977058025   -0.75514780528683   -0.86673776882188
O           0.56322192122428    2.84500710099815    0.20640851542487
H          -0.39793512147007    2.64699952006444    0.24157261658974
O           0.59660835300900   -0.64089201113932   -0.77528515470018
H           0.96776309994886   -1.54603483117070   -0.54622151577267
O           1.29423116818989   -1.82637841915606    2.86187255055403
H           0.95860204030470   -0.96504377456617    2.54845662188091
H           1.86621545605751   -1.63471749573431    3.60593539394918
O           0.49481927380496    0.51289073975343    1.64323439930996
H           0.65222176983806    0.05088658068478    0.78995047202486
H           0.93129998039221    2.26362603384612    0.89534710602779
H          -0.44425806302419    0.74108235303411    1.60933741359102
O           0.79298497510003    1.58684199087920   -1.95720379770693
H           0.83757693064402    2.20551046860057   -1.10798550890728
H           0.92288909799875    0.64493830615847   -1.60348662441311
H          -0.25797710030464    1.59173484777416   -2.17690479761001
N           1.44218585419099   -2.95874216078669    0.15507852657546
H           2.35046573879364   -3.34356756388914   -0.07023884643378
H           0.74936681903892   -3.68303978015011    0.01411799966027
H           1.43814235582519   -2.71944736595783    1.14648231210666
