    26
        -50.44582481  Gyration_radius:  2.68633985478 Dipole_moment: 3.268
 S          -0.06578249150859    1.85187410096433   -1.75248499656280
O          -1.24183643989895    1.36400351300382   -2.49250813525729
O           1.03977163816493    0.92374654551913   -1.83702770051034
O          -0.41196206422352    2.22447612592433   -0.39689800065766
O           0.38403478370220    3.16861971918734   -2.49693465801620
H          -0.35233411922705    3.75353205172312   -2.34776917397425
H          -0.85063333374743    0.80420006338890    0.30661179322698
O           0.59809875626442   -1.63994370214548   -2.32535958933548
H           0.87459092149676   -0.70498627547069   -2.44219320007845
O          -1.02930038223555   -0.13573225392427    0.53971917155829
H          -1.10608244394864   -0.16949063358644    1.54092882205077
O           1.92606306770359   -1.04443584670638    2.89881435144048
H           2.49247455146360   -1.78269664181313    3.12592687360761
H           1.90473135305160   -1.00871438113607    1.92360919720963
O          -1.74354604819573   -0.92758567937517   -1.75406408713192
H          -0.83908622176774   -1.37642636861072   -2.04804443644861
H          -1.64061288498084   -0.75525835763187   -0.75964258359993
H          -1.63815093894136    0.06213119176045   -2.15662580601782
O           1.49188857313120   -0.97431836725157    0.17773012263427
H           0.55556242226115   -0.76703749558687    0.39370003465820
H           1.01641173307136   -1.88761675200481   -1.48165175314058
H           1.78233926673072   -0.20845532603706   -0.33627229144978
N          -0.87355988364280   -0.19678834158057    3.17135099803751
H           0.10174236523172   -0.48566543426635    3.24552901024552
H          -1.42923898543849   -0.82152029886878    3.74127484105765
H          -0.94558321441162    0.73408885453968    3.56228117649739
