    26
        -50.46862861  Gyration_radius:  2.47505834896 Dipole_moment: 4.026
 S          -0.16491188149425   -2.20937906073188   -0.37176722685666
O           1.21449454857653   -1.81127987653708   -0.30388234389477
O          -0.97647041457351   -1.19225555808910   -1.06184744609469
O          -0.75900601688224   -2.59807347446157    0.89049310431375
O          -0.24038131645183   -3.50187277202190   -1.29167089774928
H          -1.02387195301779   -3.92210716048233   -0.95303142363603
H          -0.41507552981264   -1.34109964982970    1.83403751126554
O          -0.84502598443859    2.58766427611056   -0.19936237131052
H          -1.40038823556047    3.36712352394352   -0.22007151071967
O          -0.28393504096954   -0.51960636905066    2.36854155942149
H          -0.07295455731956   -0.81209080693659    3.25697397625496
O           2.62261810759691    0.42541568497436   -0.64030773089641
H           2.38535452233347   -0.50769854367330   -0.48290161078186
H           1.40946759534203    0.73886280437363   -1.47420138246528
O           1.29078349267047    1.53958147496494    1.38110813331639
H           0.62459536383198    2.08504100612249    0.94165526879029
H           0.80497978283713    0.79253269446571    1.77080120318406
H           2.35786381370938    0.88791147003826    0.18902217793444
O          -2.16488951404863    0.51242008848641    0.63626091136020
H          -1.89684036104040   -0.17004925463889   -0.01076804051846
H          -1.72041970221919    0.25213029587379    1.45755984958763
H          -1.41748624204711    1.83936067681248    0.14530371788874
N           0.41182625530007    0.87376311546144   -1.89746437200637
H          -0.04164464048449    1.67446402181187   -1.41728391631162
H          -0.13683071168754    0.00237938054376   -1.64560743757383
H           0.43814861985315    1.00686201244928   -2.90158971248029
