    26
        -50.45334095  Gyration_radius:  2.59336688577 Dipole_moment: 3.805
 S           0.04694741906373    0.20476503274477   -1.46957707504428
O           0.78273057887382    1.21943287958997   -0.77242345339449
O          -1.34483145476432    0.01673274407755   -0.86943649270031
O           0.71512789308418   -1.07778202189650   -1.52189751934924
O          -0.26314138554646    0.67879967816897   -2.89507282032408
H          -0.72337978572342   -0.13255590838949   -3.31432477851960
H           2.13511637032559   -0.92845138907130   -0.55411564095692
O           1.35261786737910   -0.54827361154933    2.27035544051515
H           1.68762214253638   -1.20552628889581    2.88207445012274
O          -1.80649533796066    1.75816160567115    2.57305797412213
H          -1.85611550986017    1.93557518930686    3.51337301686869
O           2.78976444279704   -0.55820434518795    0.06931646568160
H           2.81695309671419    0.37914451219109   -0.14791497633358
H           1.93350076512597   -0.59506330432418    1.46466738498673
O           0.70560824982878    2.15226204114939    1.80458518877579
H           1.07077209565197    1.33091359111394    2.16358513113681
H           0.72547491512649    2.03259908503608    0.84154930099021
H          -0.92060953446363    2.07849828209695    2.27530258909061
O          -1.26082711213148   -0.61673348658454    1.53290621775837
H          -1.32857589482748   -0.28153834922295    0.15223872822646
H          -0.31634225727849   -0.65475516853429    1.79489616130253
H          -1.61660365597568    0.20542981344537    1.95346988613364
N          -1.27681160286584   -1.60031624921642   -3.48267162543860
H          -1.25983544518530   -2.11148219496760   -4.35534131171407
H          -2.19449709576107   -1.68535083857046   -3.06590569300346
H          -0.59416976419419   -1.99628131811403   -2.84269655882595
