    26
        -50.45334080  Gyration_radius:  2.59380463457 Dipole_moment: 3.814
 S           0.43991732001639   -0.72729188168045   -1.21655658011293
O           0.18418320899755    0.76786268318652   -1.39462283497584
O          -0.67513931335934   -1.37582501956821   -0.58975689613923
O           1.69616819134186   -0.91173218934008   -0.52248135701986
O           0.57763879983787   -1.21911461309904   -2.66280289808091
H           1.42891849399886   -0.75340858862790   -2.98643963129981
H           1.32843939353045   -1.75333331198611    0.93737170728175
O          -0.29873890088370   -0.00959474708681    2.68206242720124
H           0.07470007695273    0.17275982910346    3.54561638790819
O          -2.88703930337509    2.07347286732694    0.59792883185182
H          -3.44797041220618    2.45815845603110    1.27284312160872
O           0.81364618723130   -2.16116298892929    1.66054144425540
H           0.15412673911053   -0.83008834259118    2.34972927104856
H           0.06615951686663   -2.57178769607122    1.21420229452226
O          -2.60818346287551   -0.50975723508248    1.15132166414381
H          -2.09286082110613   -0.89785249984710    0.42612172629808
H          -1.97610969847185   -0.40813098389860    1.87730335110271
H          -2.94031097741894    1.09409719246314    0.71610719058366
O          -0.24732874073017    1.91718719384388    0.76746713231631
H          -0.20733339942873    1.23896980949056    1.47486128311567
H           0.02424806887322    1.28198730528085   -0.47697292864695
H          -1.20701813872527    2.13871065550635    0.67113066535306
N           2.75271309466606    0.10315309501728   -2.95810732787269
H           3.58115563665947   -0.12622130463164   -3.49106486358670
H           2.92069485976440   -0.07742966608361   -1.97245339351962
H           2.54532358072676    1.08637199126414   -3.07334978739277
