    26
        -50.45129012  Gyration_radius:  2.61541411549 Dipole_moment: 4.148
 S           0.50918185058907   -1.14120943573783   -0.74051636944496
O           0.97910296548050   -1.03352973735857    0.60856034164357
O           0.70773169520939   -0.00166619170105   -1.59089370563345
O          -1.00481466700777   -1.45616323172129   -0.72410283082208
O           1.13702083905778   -2.38102770423832   -1.39634314499199
H           0.88810211423256   -2.30466289925639   -2.39308924615262
H          -1.29376200806675   -1.63490996615054    0.24336461503089
O           1.40955613871698    3.12361118659967    1.13313359491106
H           1.31395656653216    3.87246134229999    1.72313664111531
O          -1.65090809053403    0.94334619594654    1.97572399995958
H          -2.49351031622633    1.37524744174916    2.12195584684506
O          -1.43300499928402   -1.69920518984696    1.75343884217007
H          -1.62538905662684   -0.74887866678863    1.93550293112807
H          -0.49600272179241   -1.80863569414095    1.95608076360905
O           1.10865431593973    0.88781450454282    2.58946457203668
H           1.46438685619663    2.32544454174123    1.70650047074848
H           0.14497050945426    0.93782766347669    2.66080818113230
H           1.27684518534584    0.19449669915243    1.93377727359901
O          -0.62868296406210    1.93986822464431   -0.20384023283058
H          -0.18887442020524    1.30190416292695   -0.78691648566136
H          -1.30139875291098    1.30485285021603    1.10914685566605
H           0.09781388739712    2.49167950193725    0.15617140282218
N           0.36280757012310   -1.77444204000996   -3.75751795195513
H           0.37508589642520   -0.80553052357642   -3.45029895476245
H          -0.58927373798552   -2.03732854938550   -3.97431903851584
H           0.93040533399971   -1.87136447530251   -4.58892837164197
