    26
        -50.45129007  Gyration_radius:  2.61555132555 Dipole_moment: 4.156
 S           0.61049687054933   -0.70176616489361   -1.11058441359955
O           1.24452708037317   -0.89264761657960    0.15973158214525
O           0.44642193203715    0.65212273764468   -1.55901356023896
O          -0.78919431241416   -1.35841757293722   -1.08009221915746
O           1.37120270380914   -1.50294046371183   -2.17901808887830
H           0.96994862443966   -1.19306333811214   -3.07560889114057
H          -0.88571382721375   -1.88813378961902   -0.20746317705150
O          -1.49632617535771   -0.12375178565281    2.29584244101915
H          -2.37998989176066    0.02642224784704    2.63417936323801
O           0.89930328687633    2.87653079705001    1.98756298612016
H           0.73770701156169    3.36660240722488    2.79487833314956
O          -0.77829294097995   -2.44055587389916    1.20234438036170
H          -1.13104020419388   -1.66605667230965    1.70142467304664
H           0.18089883374104   -2.37584969151861    1.28477349587097
O           1.27705656397936    0.30210824703616    2.65049044427483
H           0.34485119590412    0.09554788390055    2.80693671831826
H           1.48241548941553   -0.09604207124562    1.79131012541236
H           1.19913837497033    1.98052336031648    2.26348777376565
O          -1.02958650060128    1.69891198030215    0.49274363407095
H          -1.35835228119623    0.55480566706515    1.57194509545235
H          -0.38435065362522    2.27278297044348    0.95793935908291
H          -0.56324395073941    1.39458002843418   -0.30102658986262
N           0.15582424279469   -0.41954739657445   -4.15216284406856
H           0.01578056148258    0.38630201681674   -3.54859700770301
H          -0.74429711460731   -0.82405502452363   -4.37301195317237
H           0.60481508074876   -0.12441286251086   -5.00901165043465
