    26
        -50.46725491  Gyration_radius:  2.51619979764 Dipole_moment: 2.200
 S          -1.63392156185422   -0.48421200345742   -1.34368203858951
O          -2.61985785119317    0.55210462114160   -1.21046878871810
O          -1.18401606671816   -1.01625905745858   -0.05503990440126
O          -0.50208355842184   -0.12466856234612   -2.18277809828415
O          -2.36347411802363   -1.70051318297228   -2.06459554924716
H          -3.10011656572284   -1.26568717030655   -2.48166272219251
H           0.93049384886569   -0.94072133848599   -2.07695470913653
O           1.83656600920299   -1.32056912039440   -2.01516888969489
H           2.16557073684245   -1.34805022501176   -2.91471527463743
O           0.34164485563734    1.78537850807084   -0.46814387019675
H           0.01389016398316    1.24241892027211   -1.20468007795202
O           0.16467455250041    0.84132380863294    3.18547570451129
H           0.69817713402518    1.63570993390192    3.11171753319562
H          -0.65890663756264    1.02559242638935    2.69876494804185
O           2.59778775998865    0.37965765373482   -0.09465266394123
H           1.78350465086066   -0.48367277117915    0.85043073809900
H           2.53432442197068   -0.20491573095376   -0.87991000089926
H           1.92858696064923    1.08064621012772   -0.25165598754917
O          -1.75234167027473    1.17586181317325    1.30060687081791
H          -0.36477131239323    1.77784386144132    0.19566984235635
H          -2.49880317022854    1.56862514766917    0.83819237420671
H          -1.65181899810996    0.29897849653510    0.87356398107437
N           1.03044190853022   -1.01520270095606    1.42490516220743
H           0.19805326378019   -1.13165510657124    0.79911340083633
H           0.74255474086605   -0.40833553718976    2.22803594468124
H           1.36384051917553   -1.91967888987690    1.73763208630218
