    26
        -50.46862861  Gyration_radius:  2.4751006385 Dipole_moment: 4.021
 S          -1.47644291313051   -1.68726525725198    0.14324204344763
O          -0.39904798317724   -1.61488708517123   -0.85850988922880
O          -2.14413614285682   -0.42143857394257    0.27694992949082
O          -1.01211351692504   -2.27512006451701    1.38267999919547
O          -2.52980723526344   -2.71901811962222   -0.44671140864100
H          -2.18812883468375   -3.54119461043486   -0.11140421435378
H          -0.16256263381493   -1.07567670740255    2.03732255624225
O           0.43712909355460   -0.36552716212819    2.37467422063358
H           0.31450364234353   -0.34430335302608    3.32535106772494
O           2.28785367991706    1.18233388545748   -0.90321370607540
H           3.19520853635981    1.32752285161600   -1.17176106570793
O          -1.68479448400481    2.11196551064422   -0.40872806742312
H          -2.11367269460877    1.30611212110080   -0.06459737833935
H          -0.84283257280496    1.39616106725165   -1.43056030795555
O           0.49779877107323    2.10797267920024    1.12025002356525
H           1.21762997679474    1.97558746356037    0.48872609254879
H          -0.98051156053360    2.31458680813029    0.25057122816416
H           0.42500084739641    1.27434761151640    1.61591524488198
O           2.00241448916840   -1.13352933604567    0.23775753025910
H           2.26240273470137    0.28199659788495   -0.46130522114582
H           1.72457046628475   -0.92941680106922    1.14381093601498
H           1.19239916434288   -1.47146965940672   -0.19353197614280
N          -0.16787433445502    0.74374827806541   -1.98859002108387
H           0.80857941992029    1.01801439943949   -1.76817926729989
H          -0.34757392536849    0.77177880140148   -2.98538969643550
H          -0.31599202024271   -0.23328137524487   -1.60476864233804
