    26
        -50.46725440  Gyration_radius:  2.5154932977 Dipole_moment: 2.190
 S          -0.91454106636813   -1.19217784395710    1.56494061630723
O          -0.54942150486596   -1.45104746142564    0.17011462449703
O          -2.26811129140357   -0.73545944978806    1.71642817016553
O           0.07456321873777   -0.34718604296872    2.21477390700600
O          -0.84115872995521   -2.60956905908602    2.28401692368866
H          -1.58445268652670   -2.56608070983124    2.87668803638488
H           1.66356956057186   -0.40290460169728    1.76736859609428
O           2.60809673360607   -0.31805812962000    1.50314549448209
H           3.09332592682687   -0.19417344690450    2.32005838846846
O          -0.42302154458441    1.73462229569923    0.56577047290454
H          -0.30594614426603    1.10210166590346    1.29438515582037
O          -0.89974855591551    0.83590007577488   -3.05790220298564
H          -1.59771442390154    0.60958855627313   -2.41707145127177
H          -0.78181115789132    1.78633802748289   -2.99487340276215
O          -2.32613279670050    0.22047047537090   -0.83835029931518
H          -3.05390792266373    0.21902266127490   -0.20933907739026
H          -1.16960857781587    1.39867721649892    0.04666136751408
H          -1.74945104525302   -0.50814336988991   -0.52556526986371
O           2.09604847451173    1.54754010996100   -0.34505762828478
H           2.46970543770265    0.99893747797298    0.37725310190196
H           1.58915746756715    0.40483758719539   -1.20583784849575
H           1.22930201046246    1.85459759321505   -0.00144314973742
N           1.05917663816631   -0.41438425994154   -1.68245225470610
H           1.69371134920048   -1.05864766591426   -2.13992615247361
H           0.36640181533359   -0.00802577282608   -2.35430935969127
H           0.52196879543270   -0.90677594879164   -0.92947677826549
