    26
        -50.46725485  Gyration_radius:  2.515556221 Dipole_moment: 2.195
 S          -1.51532031150132   -1.27195536460442   -0.88982520306253
O          -1.39571520333985   -0.57893069817151    0.39522978008302
O          -1.02147990240105   -2.62042415695527   -0.84959136884619
O          -0.96367326627654   -0.46819351200810   -1.96875688711934
O          -3.07943072610550   -1.38030016978508   -1.16043113760136
H          -3.15151808362869   -2.24978930857170   -1.54090196045681
H          -1.00849401624871    1.18195956791260   -1.90846055107365
O          -0.92269245459983    2.16263745555278   -1.90824582706195
H          -1.07348942341014    2.43410033308320   -2.81477732348427
O           1.53054782897411   -0.54350064806791   -0.93325508634450
H           0.71080585954549   -0.60931439133270   -1.45124580610815
O           1.73127423432183   -0.12384319268748    2.80085419685410
H           2.61382023118293   -0.02282964565438    2.43717925430878
H           1.38490729350028   -0.95781610226603    2.43542543607160
O           1.42291124710642    2.12145835138016   -0.62139564252797
H           0.61122950475917    1.83637231113704    0.62899339394493
H           1.68333929931610    1.19790415823148   -0.82833830117068
H           0.66636328148729    2.30622968320974   -1.21785208241796
O           0.61976718494971   -2.05081877156554    1.25429268021068
H           0.49423653469943   -2.90986174235439    0.84000012340848
H           1.41120604657095   -1.14162306654337   -0.17976991845967
H          -0.20814489220284   -1.56980310587179    1.04342927745317
N           0.00190031708323    1.43643766754868    1.43397165516082
H           0.63180224652159    0.92998642259880    2.09965209242915
H          -0.64242825622146    0.73013106865662    1.00491913220462
H          -0.53172458429323    2.16178688735152    1.89890006374648
