    26
        -50.46725403  Gyration_radius:  2.51535366894 Dipole_moment: 2.173
 S          -0.19746782153901    1.90273940534043    1.02192143281886
O          -0.08957974506472    1.64648047391495    2.43127972504604
O          -1.14109803170298    1.00846497188463    0.34717076345544
O           1.07812102628453    1.93803483279544    0.32450907599687
O          -0.82930013617244    3.35624672582223    0.88149660873168
H          -0.61926450425986    3.74320944816779    1.72535002192709
H           1.15873592818528    1.73098870249266   -1.31207048443324
O           1.29787948362875    1.53445580769361   -2.26662363432609
H           2.00275691750654    2.11876697747783   -2.54932864837557
O           1.55348265988379   -0.68119623708921    0.78459455077409
H           1.53699166022226    0.28871429150719    0.72367002019717
O          -1.40387322053182   -2.95509152309068    0.37792456309426
H          -0.60765301862221   -3.48953772747375    0.41978986136169
H          -1.36825325039475   -2.36107670431453    1.14924413324436
O          -0.90614249441017   -0.93727905354471    2.11593404210753
H          -1.13362288910719   -0.20009882921708    1.51099910775137
H           0.80470554512070   -0.91923456258269    1.35233793814994
H          -0.70763010092741   -0.49516590118838    2.94686921852436
O           1.48451632538800   -1.10403684804171   -1.86697768414551
H          -0.02627007189818   -1.08601634004191   -1.72243359621210
H           1.59000694073502   -0.17488042069678   -2.16370614656485
H           1.71254467354180   -1.08794867872670   -0.91248058787182
N          -1.06563653056780   -0.97597401106631   -1.42779279926953
H          -1.32398165433928   -1.79727270024190   -0.83181656035812
H          -1.67785531147313   -0.88577660681917   -2.23031836754523
H          -1.12211237949905   -0.11751549294335   -0.82954255407172
