    26
        -50.47063278  Gyration_radius:  2.42473155495 Dipole_moment: 5.277
 S           0.39589601752676   -2.00090333809127    0.08148137666016
O          -0.07295476231172   -1.70519804837053   -1.24557102841750
O          -0.64220274483203   -2.00116420730094    1.09941697822277
O           1.51691198370431   -1.13945730367708    0.47563162167430
O           0.96294220540874   -3.47918067128516    0.06392090735971
H           0.76406960633376   -3.76529644505776    0.94875563273798
H           1.92348896440409    0.21887680171484   -0.29702736496043
O           2.13300250387647    1.11848668975349   -0.65935350701734
H           3.08913827603891    1.17359899706915   -0.68840533104198
O          -1.81494874320683    1.64326843847984   -0.79186920913262
H          -0.77998351385096    1.96427752175862    0.20493508992571
O          -2.58208937379459   -0.86231426081714   -0.31710594260505
H          -2.35735994020961   -1.23853739791763   -1.17326430566065
H          -1.96182543889501   -1.29438234851405    0.30097568403449
O           0.35486747971214    0.06436030949715    2.49778968502544
H          -2.25001939614917    0.79419767041265   -0.54317330734362
H          -0.40870310029928   -0.52700990386670    2.49636129733017
H           0.96564652668098   -0.38532801534821    1.87392705779074
O           0.00493231754760    0.69365998892638   -2.46757510016990
H           0.85150595007216    1.00220335139632   -2.12027387085496
H          -0.05355703098066   -0.23703798467177   -2.18028080503230
H          -1.25298260105163    1.40383687923118   -1.56901647099118
N           0.09105412406476    2.12966233428597    0.85868317483052
H           0.93725595550159    1.97778970425391    0.28000762476398
H           0.10577737859258    1.38936814506001    1.61545901177573
H           0.08013735590258    3.06222308327771    1.25557111089905
