    26
        -50.47079808  Gyration_radius:  2.41567547694 Dipole_moment: 4.284
 S          -0.30425502105952    1.23362630736094   -1.53144033628235
O           0.72717409330707    0.35573144839932   -2.07166192070151
O           0.20969930320202    2.10454652750025   -0.49760329392164
O          -1.49887716374346    0.50677621164006   -1.13383114454622
O          -0.76523307728016    2.16221592669622   -2.72738399144700
H           0.02928941966068    2.65012645528779   -2.91441566751836
H          -1.95958200012185    0.11709486786863    0.35777895411733
O          -2.19229641959679   -0.23231401814427    1.25621775671043
H          -3.14474919951937   -0.16042697879416    1.33099932375844
O           1.74089663282004   -0.63756548076371    1.75252509045739
H           0.68226192054368   -1.53895178082068    1.24562887023906
O           2.67343867630723    0.75361067380088   -0.31087734621847
H           2.07122452405142    0.52586516970143   -1.04491824811412
H           2.37092237477125    1.62008858731126   -0.02079488959000
O           0.00396844362411    1.34029950813235    2.07496840868405
H           0.09266667844148    1.74383701123942    1.18964289854982
H          -0.86079709931092    0.91038022355622    2.07027461962040
H           1.19806894576165    0.12144263606549    2.07606185709508
O          -0.51233207355124   -1.90746055863999   -1.71184955906510
H           2.25322965935140   -0.25292719505413    1.00291682707635
H          -1.29823843520077   -1.34168346061881   -1.68493258096214
H           0.17152674391964   -1.26696504789198   -1.99666588094663
N          -0.20562444767105   -2.09495093291449    0.91229448724264
H          -0.21056784021550   -3.03026734846237    1.30353444561011
H          -0.23930476614008   -2.12573032240791   -0.14959816081034
H          -1.03250987226379   -1.55639842999160    1.22312947099216
