    26
        -50.44910303  Gyration_radius:  2.52660174305 Dipole_moment: 7.161
 S           0.37152885524368   -1.42252768993179   -0.65432607153886
O           0.89529883459178   -1.85367180898595    0.59437878801069
O           1.31852879831798   -0.48083987876432   -1.40055943778796
O          -0.93136095486615   -0.76572282910263   -0.57320685824656
O           0.25196129723705   -2.60721079596891   -1.62108149771145
H          -0.14085333093022   -2.19393475732834   -2.46434699455313
H          -1.10419081753675    0.82575374843817   -0.12418839106454
O          -1.11988926788583    1.77613106351184    0.12837450630631
H          -1.96861015345271    2.12478148397520   -0.14810149606662
O           2.05637700439777    1.12857235848517    2.33437176626672
H           2.49299611528852    1.74966645448467    2.91885786949417
O          -1.29683995144984   -1.32761181302738    2.13367975664596
H          -0.43135199245364   -1.75562541941014    2.11062927670657
H          -1.48950810378505   -1.16215711931411    1.20132814981510
O           1.60974612095090    1.66814526293197   -0.18536615530246
H           1.90661031840272    1.44374597402658    0.73882589367999
H           1.50762137096062    0.43110211267126   -0.88391560649914
H           0.68853532148446    1.96375399376403   -0.09440710404034
O          -0.53988117737254    1.18175216960795    2.81912379876609
H          -0.86751767638531    0.25966082219306    2.77832579941649
H           1.10865458226207    1.09085773662125    2.62371325396788
H          -0.82691411849290    1.58342871535917    1.98630429685868
N          -0.77585863215636   -1.12968777848531   -3.45691191421407
H          -1.37752104935588   -1.36382050579822   -4.23529397745216
H          -0.02979538257636   -0.52687800224242   -3.77798255801672
H          -1.30776601043663   -0.63766349770912   -2.74822508344047
