    26
        -50.44910277  Gyration_radius:  2.52684703772 Dipole_moment: 7.155
 S           0.48502225530340   -0.68224032921483   -1.37560615928807
O           1.55654990030613   -1.16352463520047   -0.39556439421848
O           0.76597978612585    0.60407737359138   -1.91014955562134
O          -0.80894481419216   -0.79286622827372   -0.70516391122433
O           0.54510193532916   -1.74451212515323   -2.48032100591267
H           0.31578389203016   -2.61072549269669   -1.99701237042599
H          -1.05937048606801   -0.26270100010710    0.85053475009174
O           1.58971035551537    2.75524640345405    0.91720363504317
H           1.91023460167577    3.45662240330306    1.48589130056555
O          -1.12075550690539    0.05536734289935    1.77913381858003
H          -1.90537631323597   -0.34228896566523    2.15941074772104
O          -1.67414173414117    1.74617008343485   -1.46484884550593
H          -1.68571142750432    0.80988863988062   -1.22563633529172
H          -0.82230848533011    1.85373936254616   -1.90690537691389
O           1.62034280121655    0.24531179040311    1.65209575671174
H           1.73973638307416    1.18844144822803    1.35404955608744
H           0.69902674854732    0.18649365260921    1.95505082057580
H           1.64737002200297   -0.55305678736525    0.47186839419747
O          -1.05148713865813    2.75217756902609    0.97290129837814
H          -1.36782386369728    2.58034370650069    0.06209364572447
H          -1.17760873665606    1.91393601619496    1.44064810008908
H           0.60474030120421    2.85993930426165    0.87205943701372
N          -0.12414032008963   -3.61692837039311   -0.85095494030081
H          -0.77522560300537   -2.98068053449652   -0.40545473145792
H           0.66840502976851   -3.75173665636419   -0.23723491596346
H          -0.57510955263302   -4.50649397140072   -1.01808871865350
