    26
        -50.44910303  Gyration_radius:  2.52664453095 Dipole_moment: 7.160
 S           0.18712780449459   -1.38594561765698   -0.79648264500137
O           1.26225802695302   -0.81340488236180   -1.52847214569083
O          -1.18263754137414   -0.92329301904765   -1.29645293862570
O           0.23600730319423   -1.14548063236448    0.64417035073290
O           0.13038191535995   -2.90105990944493   -1.02808866365437
H          -0.65358837690996   -3.20528480982657   -0.45431820216455
H          -0.26015009523437    0.28577476314237    1.32903092483232
O          -0.59251797761631    1.15111781136918    1.65771727477161
H          -0.77302037861912    1.04421344185145    2.59275390333711
O           0.62840857899663    2.77051873172859   -1.69803218098365
H           0.61676825293651    3.69972333751035   -1.93146058593105
O           2.76545156734393    0.02733778874319    0.58934923212626
H           2.75246257322207   -0.10741008985185   -0.36690811057584
H           1.99669954728714   -0.47137108281841    0.89599824568103
O           1.68466440025081    2.50896725054554    0.70915458003756
H           1.13376162099557    2.70198843741642   -0.84763330641858
H           0.88675314280685    2.22686915253583    1.17934424438696
H           2.26028514101235    1.71672433061701    0.69545273451096
O          -1.52090703046834    1.50838181584947   -0.90587537877408
H          -1.36487661384789    1.57282895707805    0.05111937441139
H          -0.75392056000813    1.98211515695614   -1.33001059042909
H          -1.34332419838305    0.12429946553134   -1.19197032746550
N          -1.85339072675534   -3.17015909928208    0.58480966819340
H          -2.64630994448452   -2.74422403916906    0.12336792218156
H          -1.43068535550325   -2.48544174017000    1.20105992328984
H          -2.16570107567851   -3.96778551879801    1.12237671725038
