    26
        -50.45034906  Gyration_radius:  2.65656507786 Dipole_moment: 4.683
 S          -1.61880965973351    0.03229797238093   -1.02319287726303
O          -0.42344671727068   -0.22396280558404   -1.82214429927419
O          -1.57286085613070    1.36031764663755   -0.40782685538966
O          -1.80348909635867   -1.01138835849383   -0.01965507733115
O          -2.85239743437258    0.03423346136051   -1.96626527271535
H          -2.82724325051059   -0.87594938454454   -2.35499948339695
H          -0.71108014822007   -0.88411501684452    1.10566457412921
O           0.62267303430391    2.27897273340445    0.21823661061143
H          -0.36151872768720    1.99492790043306   -0.08517687688926
O           0.06346913486434   -0.84336381281893    1.73622028178947
H          -0.00654441251002   -1.62786807426873    2.28254205444283
O           3.35882026467219    1.03866871022263    1.71296827407717
H           4.01336523499182    1.68807163465419    1.45221700200639
H           3.08306684327102    0.57726892328478    0.90913242950537
O           1.65210353527336    0.00509254148874   -0.30549714955377
H           1.17410039020168    1.46844978435733   -0.09001489507331
H           1.25991098014328   -0.45873812096996    0.46024663450551
H           0.99405082054118   -0.15763732621568   -1.03146358880099
O           0.84750086484066    1.60922998193669    2.63344720945117
H           0.42996765111175    0.73361872848604    2.52418222147717
H           1.80834122994585    1.44190526244259    2.60176396458492
H           0.63499591344047    2.17485008087346    1.26099556607870
N          -2.13274926770450   -2.41486694772876   -2.51564066434679
H          -2.27586021455716   -3.27552509551667   -3.02925163023805
H          -2.14694053061210   -2.61394840675796   -1.52140266315962
H          -1.20942559196281   -2.05054200220000   -2.72508550925160
