    26
        -50.45034905  Gyration_radius:  2.65653672397 Dipole_moment: 4.681
 S          -1.72489074722556    0.71515136547855   -0.42658662639216
O          -1.75597442884227   -0.31920649321307    0.60395761024938
O          -1.24775946973177    0.18002153802925   -1.70347697795619
O          -0.91867050079457    1.85226948200740    0.00647704286816
O          -3.17635347913446    1.20610723267233   -0.67786190884275
H          -3.44534007122392    1.54632775740510    0.21221375031511
H           0.60575005481856    1.46340701905310    0.02547975179546
O           0.39700596118100   -1.65003604032814   -1.65787625463922
H          -0.36616303589948   -0.91171616052764   -1.77557623296020
O           1.54761370867705    1.14725370193786    0.13579501510235
H           2.01388570301332    1.86811297475407    0.56210484293913
O           3.17431071826315   -2.28148976082280    0.11573163861585
H           3.26631795515254   -3.22433338375456   -0.02811632932427
H           2.37126591983918   -2.15271302866474    0.63887392232821
O           0.61500243243284   -1.30591299738794    0.85975997048177
H           1.08004500580349   -0.44814994370814    0.80172773982316
H          -0.33964620970750   -1.04241238755382    0.93530774988569
H           0.46937376271153   -1.70865792666380   -0.63447913344642
O           2.59615653298970   -0.43759865201124   -1.81955503185036
H           1.29209568154768   -1.17135251397481   -1.91864259074973
H           2.32765461753137    0.31287872694219   -1.25592408527896
H           3.08626598344292   -1.04047869658827   -1.22916969779792
N          -3.13457854822497    1.86046278345438    1.84942117195430
H          -2.84289269930078    0.90912392866595    2.04675598854584
H          -3.60109620380494    2.24151532992048    2.66307111464379
H          -2.28937864352023    2.39142616489047    1.67058755968487
