    26
        -50.47200636  Gyration_radius:  2.49867843261 Dipole_moment: 3.925
 S          -2.02451646348539   -0.56839969601116   -0.63477661877617
O          -2.05424196473694    0.86353577115932   -0.34229078587294
O          -1.24504052213486   -1.31107456599084    0.33135831004318
O          -1.65353768419773   -0.82565780037618   -2.01298005658286
O          -3.51694897134442   -1.07651055824674   -0.47706571490834
H          -3.93692559860108   -0.70240308756963   -1.24428402412126
H          -0.10565483273549   -0.59166335420777   -2.30821504948647
O           0.86001387175332   -0.38131898929575   -2.41741440330661
H           1.04535398691298   -0.47530491400930   -3.35325747132869
O          -1.37166996979510    0.56478922366489    2.18047971493149
H          -1.80389880968349    0.93422315248565    1.38485077392533
O           2.72922540022705   -0.62033291669236    1.52730920200434
H           3.61348895519890   -0.60647481320156    1.15929146647292
H           2.19785650443656   -1.22483919158276    0.93781578975228
O           1.30489537458578   -1.97336637267792   -0.19570499193594
H          -1.30116863775810   -0.37343087370880    1.93709513436846
H           0.36838498726353   -1.89848377546118    0.06735336434739
H           1.35385423838331   -1.50414642086134   -1.04353723013512
O           0.33698728721138    1.84989317417535   -0.93218265593690
H           0.85859144397909    1.67853095310810    0.54404872561456
H           0.68762255980315    1.16137662292907   -1.52515167877008
H          -0.60734211148614    1.61439420975470   -0.80481781778589
N           1.04297387710328    1.44283259579057    1.56850767413858
H           0.11132099981418    1.09527698208755    1.95332693256252
H           1.35707769466474    2.25992094769576    2.07976039100482
H           1.75329838463516    0.66863370703837    1.62048100978263
