    26
        -50.44892230  Gyration_radius:  2.60979262136 Dipole_moment: 7.151
 S          -1.13159360103995   -0.36076303730990   -0.94943248736503
O          -1.75241516212138   -0.15869656395931    0.32152355607818
O           0.01367667066722   -1.23656410066691   -0.95002074122891
O          -0.69784233196334    1.00611434130616   -1.54654599099490
O          -2.15392142252170   -0.84098267296414   -1.97393130342773
H          -1.58147006336479   -1.13885491390830   -2.78489100695882
H          -0.08272812192720    1.48932324914907   -0.90310204350679
O           0.94022624381951    2.07157952833421    0.10372949153062
H           1.53682298081995    2.69881195233766   -0.30942624724981
O          -0.82417987570661   -0.44928821008931    2.98205263328259
H          -1.22810438480204   -0.73616332823834    2.15371150646770
O           1.79534908422811   -0.90164474291563    2.88485413415079
H           0.81348351094760   -0.82733071916737    2.96089411830374
H           2.15655565582590   -0.40867505993275    3.62270353570192
O           2.14057080906615   -0.15635017231548    0.35312866780075
H           2.11962747396852   -0.46788830645103    1.28844422616619
H           1.49093902978755   -0.70949914311019   -0.11369533720199
H           1.48417979177128    1.22406273820162    0.27148035765894
O          -1.21529143416065    2.07215528114452    1.95657854837049
H          -1.70997445814322    1.48278803493171    1.37189252189610
H          -0.93104813725823    0.51899829697118    2.96558339986565
H          -0.40822662565273    2.28759202457502    1.47324405052411
N          -0.42141073939330   -1.54766480121538   -3.70275978521478
H          -0.07396562011912   -0.82008080625171   -4.31272725214116
H          -0.51001460781664   -2.40707792017812   -4.22827007855644
H           0.23075533511714   -1.68390093826021   -2.93501848390966
