    26
        -50.47200629  Gyration_radius:  2.49874391657 Dipole_moment: 3.928
 S          -1.21375019172247    1.45315551862200    1.11407604817944
O           0.04459582012653    2.11606476778297    0.77620981145856
O          -1.01854853682863    0.08121479840349    1.52919433781980
O          -2.20253045694800    1.61578464516788    0.06575383126000
O          -1.78241568658517    2.21702673812436    2.38026930105415
H          -2.05854480648504    3.04653800851791    2.00525724837939
H          -1.91706957267786    0.72317032356203   -1.22255810536775
O           1.53433146968866    0.40391849595147    2.10628747331267
H           1.23150478839065    1.25056011728260    1.72200139928818
O          -1.64323977465787    0.16909982302392   -2.00145871781851
H          -2.26732740209518    0.37156078639140   -2.70042057240837
O           1.01191187674660   -2.97714756410055   -0.52797436966833
H           0.08448338264915   -2.66193594837477   -0.33894716698256
H           0.95943768418550   -3.46855478388460   -1.34846995727165
O          -1.36238651185255   -1.93076282580801   -0.21789766278727
H          -1.53200656900397   -1.36417105018281   -0.98701660442094
H           0.68680531126631   -0.04617723127592    2.26000099809965
H          -1.31938247403376   -1.31021872041533    0.53374862560368
O           0.87347460262106    1.12448481789790   -1.54080176825409
H           0.59574019802533    1.64172588114305   -0.75415770131173
H           1.77160050937468    0.03468698177448   -0.84313883897979
H           0.04845048366988    0.74642719440690   -1.89427426863724
N           2.27282694876159   -0.65283430190938   -0.19888693672146
H           1.85706019328227   -1.61049225132554   -0.32845438612090
H           2.07475452199748   -0.31167173638388    0.79166546620805
H           3.27022419210184   -0.66145248440575   -0.38000746393623
