    26
        -50.44892238  Gyration_radius:  2.61015662073 Dipole_moment: 7.146
 S          -0.41259297307117   -1.43603537376753   -0.27180832628899
O          -0.55198352220601   -0.50970595561314   -1.36776297159875
O          -1.08132347096645   -1.06709480834873    0.93589135868882
O           1.10265693181362   -1.63573422242229    0.00565913000010
O          -0.83794206836202   -2.83220609165139   -0.71371892023333
H          -0.46256403234063   -2.92092996204949   -1.67560734905529
H           1.49693784016643   -0.79612745375119    0.41263140352944
O           2.00766371836315    0.57831964696406    0.91107326555319
H           2.94883824582130    0.68910242350159    0.76285423918293
O          -1.98540617630669    1.41484332889984    1.95727892885738
H          -2.05000608534123    0.59079721269641    1.45880482700403
O          -1.06340398739082    3.33066077850513    0.35890425725228
H          -1.49911317045609    2.64748211623844    0.92358394138276
H          -0.82169829807925    4.04677708437693    0.94769616901994
O           0.74173783463565    1.83495621660425   -0.90120737779028
H           0.20295954763147    1.09308369253398   -1.22564400027909
H           0.09696775637132    2.46959559479236   -0.50901571003263
H           1.53652431670375    1.16982542241568    0.22504347561171
O           0.21473095094263    0.21125863606695    3.08609467672627
H          -0.23066054937842   -0.48947693047505    2.59160912488454
H           0.96533411210065    0.46909176031889    2.53705052944323
H          -1.27824746158817    1.23660857879984    2.60333181684637
N           0.14686741946602   -2.63716243149277   -3.05512128004119
H          -0.34479824919753   -2.97474962842688   -3.87176192585423
H           1.13035034310446   -2.85267924929212   -3.14740566424789
H           0.02817102766219   -1.63050037541418   -2.97845359844960
