    26
        -50.44892228  Gyration_radius:  2.61039124498 Dipole_moment: 7.149
 S          -1.09228868933358   -0.22329763772119    1.03051080652150
O          -0.10932097473581    0.58519781268858    1.68006422907710
O          -0.58924547188658   -1.39964000169832    0.36587863833075
O          -1.86940628657668    0.62819979179987   -0.01058143651731
O          -2.19714483011540   -0.61067970043741    2.00762387600377
H          -2.73628878460781   -1.34054128015664    1.50685815351540
H          -1.22549485756388    1.04417410361691   -0.67268692156691
O          -0.16048276607933    1.51972394401016   -1.69158022804817
H          -0.54484902766913    1.72431223560394   -2.54625118996704
O           2.68833645906448    0.86850874140978    1.34115315894064
H           1.87878698608688    0.49062834180831    1.70650665809722
O           3.37818562361211   -0.49394998710869   -0.83665857069111
H           4.04350366727028    0.04653208362532   -1.26459284133176
H           3.17985222722280   -0.05301812726403    0.02454004427559
O           1.01622077023312    2.88568672312279    0.50588093179689
H           2.41082333684580    1.75031160192546    1.03344758352452
H           0.72052454499009    2.63225801617430   -0.37712050808176
H           0.48538378694409    2.35254405660483    1.11239148191621
O           0.91761540717306   -0.78024982130951   -1.80992904454897
H           1.86251395674443   -0.74417717963951   -1.53040070436945
H           0.44649464005738   -1.18701991904403   -1.06262793410539
H           0.34067449195393    0.63747619379480   -1.80485578002053
N          -3.19944678777049   -2.41299642693473    0.51201288066684
H          -3.85849657052571   -2.09957703586694   -0.18770782251151
H          -3.50496322379594   -3.30383575425365    0.88024372128092
H          -2.28148761740432   -2.51657076475683    0.08788080773265
