    26
        -50.44637561  Gyration_radius:  2.664698709 Dipole_moment: 6.719
 S           1.78388644451106   -0.40328645090540   -0.24160843689797
O           1.94718360176201    0.67137504461392    0.68434672950190
O           1.14740147925239    0.08942000884899   -1.55141672179240
O           0.98441097007082   -1.50831261043075    0.25380416646628
O           3.14368175931470   -0.92225919785639   -0.70485321918701
H           2.89741936648762   -1.71372427272699   -1.31476457603551
H          -0.41494624320140   -1.10318165972454    1.03097668832429
O          -1.28080803737632   -0.78905827869376    1.37921907154079
H          -1.72103491574101   -1.55849185796584    1.74555988830704
O          -1.26651881095546    2.88046174989992    0.23797154835658
H          -0.76061346550537    3.64756257137067   -0.03103174097859
O          -3.49764835455075    1.19432676936793    1.11450886657061
H          -2.81871232109351    0.58280349241607    1.41278324417384
H          -3.03561140225373    1.98965787362156    0.83033298962993
O          -0.06092865743712    1.63149454766573    2.22017754829268
H          -0.55889708606038    0.80406427597264    2.25617353497639
H           0.78710549657032    1.39957834374835    1.80413013112668
H          -0.82122775584604    2.51941672690547    1.04935682995199
O          -1.26212579991685    0.58155504005168   -1.09635772452036
H          -1.32270153872121    1.50328466516798   -0.74637133673160
H           0.13425765235533    0.31250891496974   -1.41446022052762
H          -1.53823727522539    0.01902593664456   -0.35525000727396
N           2.07188666611237   -2.80491762478455   -2.05888965692522
H           2.44695411552470   -3.72622403560411   -2.24153677081112
H           1.67095201169474   -2.43263870579671   -2.90954148584308
H           1.34487210020791   -2.86444124672166   -1.35325933966433
