    26
        -50.45450936  Gyration_radius:  2.45179600177 Dipole_moment: 5.294
 S           0.83849900746513   -1.11512346827306   -1.55415712016704
O          -0.58230419810671   -1.61401254872221   -1.24187319796829
O           1.10075836025796    0.09250210509202   -0.79251348127199
O           0.96525454830745   -0.99443039703354   -2.96139230415173
O           1.76276605151500   -2.22286400652659   -1.00346554028709
H           2.16720206847849   -1.90254060614772   -0.14032474658852
H          -0.24492696304364    0.95008146772478   -2.03824711640933
O          -2.17008663830956    1.44014329964537    0.21434772486193
H          -3.09231422828753    1.69620041889537    0.17330768448670
O           0.63580995274108   -0.29343428896057    2.67944958261374
H           0.67305168243786   -0.11356068583019    3.61950200448638
O           2.70761399231848   -1.10602871646782    1.11642828402169
H           2.80321904517549   -0.25672992297055    0.67276590055791
H           1.98615470972621   -0.97735348959123    1.76470416199622
O           0.40918504233602    1.81491639931799    1.16709982914834
H           0.75187169393687    1.34493264664298    0.38675936374910
H          -0.53375905515633    1.93570184007148    0.97930653146393
H           0.58625629920816    0.58896577032410    2.21121861540795
O          -1.43801713060143   -1.03517442796292    1.06183532656963
H          -0.90093057804746   -1.43910944282784   -0.27970226135943
H          -0.71295540087622   -0.91217211153870    1.70150514204767
H          -1.78288355319004   -0.14066720052609    0.85842109448038
N          -1.23099221847706    1.06084050031406   -2.25283726015471
H          -1.30434603757257    1.70790839917861   -3.02916088794066
H          -1.85679866148134    1.33869100789483   -0.73082183538804
H          -1.53732781073253    0.15231745829002   -2.58215549419871
