    26
        -50.45450921  Gyration_radius:  2.4517963364 Dipole_moment: 5.296
 S           1.16992026350691    0.25823414330688   -1.71090187265884
O           0.88703444846842   -0.75022807355976   -0.70574268773472
O           0.15989284228250    1.40980474410701   -1.57322832362151
O           1.14756761691683   -0.19117770000361   -3.05563970119274
O           2.53026570270751    0.89839756354847   -1.35851460223794
H           2.79034897389557    0.60840227118025   -0.43153146659264
H          -0.76988932416717   -1.11760255732600   -1.80841254357905
O           0.85124555563379    0.50671834513853    2.58590060284702
H           0.85392829058523    0.52736726024386    3.54351901321540
O          -2.57383462311267   -0.19704325460395    0.40963810167600
H          -3.51150443280541   -0.00259859611270    0.38173394250570
O           2.97093457391837   -0.07638149779527    0.98453912615830
H           2.63247988834339   -0.94054909923895    0.72792359013941
H           2.31177450751063    0.28132307113267    1.61279007869210
O          -0.73703948101259    1.77443793013214    0.75855416148026
H          -0.11477590191474    1.46397848049615    1.44147597230297
H          -0.15013231133637    1.60151555575134   -0.61139340844994
H          -1.46609407225162    1.12024690038002    0.72938434720965
O          -0.40844063697585   -1.51677243870859    1.53494723745439
H          -1.30980845769964   -1.22334248477701    1.33365338428626
H           0.06732729110107   -1.42933559466774    0.69045384395100
H           0.37372199593889   -0.32726314178359    2.30933708578604
N          -1.70721967256557   -0.80280018874314   -2.03861169773408
H          -2.30318989236570   -0.44588129406268   -0.52138193642859
H          -2.11373947441693   -1.48589909747491   -2.66695047286724
H          -1.58077367018312    0.05644874344243   -2.56154176460769
