    26
        -50.44231634  Gyration_radius:  2.42790213 Dipole_moment: 4.898
 S           0.57095591084287   -1.73743532567588   -0.68949006168507
O          -0.48726377776764   -1.20632760599180    0.13398070431202
O           1.70073920160328   -0.80147044933606   -0.77035733810580
O           0.16281345235402   -2.20089179784726   -1.98963797849041
O           1.11986728741049   -3.02864037902765    0.08321442357210
H           1.59712099129940   -3.52244127508637   -0.57787105073571
H          -0.60539119342933   -0.60462253624700   -2.32310302855504
O          -0.45244598671676    2.17017005230590   -0.93382205408826
H          -0.13380339944951    2.89307596440547   -1.47671485345462
O          -0.14132938282304    0.96993212609144    2.70350827677542
H          -0.24095724232620    1.73839970222683    3.26641772707543
O           1.63332394256547   -1.17612024363607    2.18852962605214
H           1.36068327147700   -1.85278663293961    1.56508784215397
H           0.83335626436485   -0.85619693812188    2.61698484240520
O           1.37913050789032    1.20583158260550    0.60090867878037
H           1.60428953738914    0.27802643513330    0.08448153085994
H           0.65881224545762    1.63064156276586    0.02159768209365
H           0.94868339648382    0.97660305790911    1.48831848136800
O          -2.07995014151209    0.77576800983502    0.94797187473703
H          -1.81254540245571    1.44127384275634    0.30272290926361
H          -1.68882756381562   -0.05909839146249    0.62875301203133
H          -0.97502568781929    0.88167047860868    2.16905125331037
N          -1.13315103509900    0.24318279384936   -2.54424560764603
H          -1.01907756412026    0.41408546609248   -3.53666096293692
H          -0.69094695213056    1.40800896216172   -1.57314851099420
H          -2.10906066967599    0.01936154859723   -2.38647741806532
