    26
        -50.44637537  Gyration_radius:  2.66509911566 Dipole_moment: 6.723
 S           0.39926909490235   -0.28983148660500   -1.77838451655604
O           1.72010264529951    0.01277866200113   -1.32803214500868
O          -0.53123656604401    0.92295405438527   -1.61279220635458
O          -0.22003626877394   -1.42016611396159   -1.11171402087156
O           0.38738579774348   -0.51702078157303   -3.28854410061057
H          -0.58998573303664   -0.77805228062060   -3.47934090569789
H          -0.06897522319933   -1.46959440759577    0.53192037196763
O          -0.03240874278169   -1.37173836219475    1.51101894039221
H          -0.39016422547791   -2.18257927338258    1.87800053070464
O           1.19987487906302    2.25135824911541    1.86049733594148
H           1.66057456759807    2.99728321266550    1.47571620361025
O          -0.10997473768068    0.51480263280135    3.82326121006580
H           0.33716794791031    1.29286396041425    3.47463977694428
H           0.06277809567361   -0.19530723451136    3.19890081856836
O           2.43981433594077    0.00065528075669    1.27885975085282
H           1.78485768184030   -0.65379785007202    1.55612132437943
H           2.39559512205126    0.00821255900414    0.30723232208911
H           1.76939234663165    1.45368108168956    1.69820504988367
O          -1.01098138328602    1.19653975502881    0.82714989251803
H          -0.92509346348631    0.32307800248082    1.24098623580885
H          -0.28114882198619    1.73268504311577    1.22144727081164
H          -0.76223475982104    1.08285873207974   -0.60535641605496
N          -2.08329560559272   -1.16537996812838   -3.27250932314949
H          -2.55149682253774   -1.82465610912353   -3.87987185793881
H          -2.65786724005351   -0.33949556760545   -3.16947253097603
H          -1.94191292089874   -1.58213179009900   -2.35793900128898
