    26
        -50.47250301  Gyration_radius:  2.4873379037 Dipole_moment: 2.878
 S          -1.34412661738637   -1.64248073035596   -0.79922600773418
O          -0.95276008652433   -1.29691823603133    0.55397722340131
O          -0.19286591044686   -1.96022435861805   -1.63514923688168
O          -2.21197957270995   -0.65925876814483   -1.41881076375323
O          -2.19690113177679   -2.97264723611035   -0.68526007131699
H          -2.53909310586929   -3.04576145736586   -1.56954947592524
H          -1.58944132984576    0.80736873962572   -1.40955432471547
O          -1.21413123277982    1.72421122654878   -1.33966001246937
H          -1.60985179332749    2.22603971112631   -2.05375584597088
O           0.98576331338783    1.59948064497402    2.01537419221393
H           1.05753339725387    2.19715490566653    2.75976609617896
O           1.40803681080256   -1.11908014167513    1.85134271108669
H           1.36403831944349   -0.17602193211424    2.09396995444952
H           0.49667006436167   -1.35248585904308    1.59499324229057
O           1.44205823285868    1.73596073756795   -0.69782051197143
H           1.39997179950701    1.84530469858280    0.26929591472290
H           1.85052490566508    0.19794611346374   -0.81962061371815
H           0.51762487875629    1.79986012371753   -1.00424700282760
O          -1.50507118400288    1.18416851129916    1.37607174177397
H          -1.45214702785144    0.22959881862794    1.16819969701446
H           0.00695622065334    1.47532072170383    1.84518894283737
H          -1.59394124600674    1.61426306854716    0.51292464644783
N           1.97332845971165   -0.85061718744402   -0.70111484804332
H           1.92184737406374   -1.04846190313480    0.34376907923106
H           2.84044653308231   -1.17740396219966   -1.11120908979962
H           1.13750992856537   -1.33531623943405   -1.13989562658280
