    26
        -50.47250298  Gyration_radius:  2.48734491064 Dipole_moment: 2.879
 S          -1.28736874813071   -0.46515053971976   -1.80808437362631
O          -0.03632925525253   -0.95144936931569   -2.37676575516420
O          -1.10055899353620    0.75946357903924   -1.05366348747097
O          -1.98707638727715   -1.49836688637939   -1.06881439223439
O          -2.22095439725889   -0.09052980275303   -3.03191811962121
H          -2.41859888221649   -0.95278347122115   -3.38109091555166
H          -1.29433904416934   -1.83933491064959    0.32478422456576
O          -0.88532346569779   -1.99485583146702    1.21636625809226
H          -1.13385592853762   -2.88536438993644    1.46850586826439
O           0.73651905653391    1.55486949076648    2.15194041515662
H           0.72102249878199    2.07703291988174    2.95415543660859
O           1.02772065097683    2.31824025272882   -0.48009847227566
H           0.99800942711079    2.24449689357985    0.49142964948220
H           0.15778382258004    1.99612339262281   -0.78058841624235
O           1.62979790171163   -0.94721537751655    1.42345245641583
H           0.77160812217936   -1.41088194555088    1.38966818207906
H           1.96623429203666   -0.51361323863225   -0.07537338454748
H           1.43910176976080   -0.08398173728187    1.83268965264878
O          -1.63857913847672    0.66290336702244    1.56140160752514
H          -1.60639155283160    0.77437023186532    0.58994454275586
H          -1.56316480556836   -0.29307893147992    1.69696312946182
H          -0.20768057724287    1.26804563510274    1.98243379865773
N           2.00998959465679   -0.05571805320527   -1.03293638771482
H           1.78030064794905    0.97408765584446   -0.89024744858264
H           1.22990886420746   -0.45724433300439   -1.62989574323333
H           2.91222452013243   -0.19006461844038   -1.47425831508943
