    26
        -50.47250305  Gyration_radius:  2.48707391113 Dipole_moment: 2.885
 S           0.14214161942210   -0.52976335291062    2.20029620729704
O           1.13979632907205   -0.53724087752066    1.14752507954270
O          -0.98117580924702   -1.40681925263055    1.89336774305006
O          -0.29379155616377    0.80204562270921    2.57439553688425
O           0.84908431056258   -1.13801486493890    3.48088843197943
H           0.19617093371591   -0.96341041514137    4.14997944173236
H          -0.84290052573550    1.63606613628009    1.33259260683660
O           1.10034831792162    0.64792125538896   -2.44135115055506
H           1.61586026478036    1.06097463656152   -3.13426071723047
O          -1.12217386544141    2.16290329648150    0.53842105598971
H          -1.72664326232093    2.83112296711533    0.86472961246559
O           1.37755299477292   -1.80829804902852   -1.22189769102674
H           1.41035164088352   -1.02369928846375   -1.79936140653264
H           1.54101022888483   -1.46348888096296   -0.32453173941647
O           1.55167655765568    1.77018075801777   -0.13440385489346
H           0.71481833528398    2.21110491962009    0.07305363903204
H           1.55111447843462    0.96962521381933    0.42799022587914
H           1.34220559111771    1.11713697269987   -1.59056510600358
O          -1.54610258483343    0.62133255715854   -1.67801977428806
H          -1.47908583061927   -0.86424316001059   -1.09870441643736
H          -1.48779301018921    1.21737874305057   -0.90739121313264
H          -0.68188586483716    0.69086353683545   -2.12229742654535
N          -1.19292674909184   -1.79584530518502   -0.67577471060339
H          -1.16937114918839   -1.68843864374153    0.37965843867061
H          -0.18939178902413   -1.97598603760206   -0.98261651287385
H          -1.81888961540359   -2.54340848848448   -0.95172231070210
