    26
        -50.47250304  Gyration_radius:  2.48734411923 Dipole_moment: 2.879
 S          -1.58883487858837   -1.39070189256300   -0.82754565589004
O          -0.71013883278062   -1.51511517983741    0.31964974285268
O          -0.84368531777141   -1.24457810050649   -2.07191768502510
O          -2.59812114702100   -0.36053109810339   -0.67328945917486
O          -2.37285886054820   -2.76325219827461   -0.93268766196981
H          -3.02179981352618   -2.55260722522938   -1.59516387074194
H          -1.97935570091854    1.06681063341730   -0.32948128892323
O          -1.58123667159340    1.93409247693572   -0.05436983574305
H          -2.20309459454630    2.60894213948418   -0.33034425439399
O           1.71160053412130    0.86740291762647    1.97672172915629
H           2.07306135991668    1.15909617682595    2.81382392306506
O           1.96879698314753   -1.53564253599542    0.65248494799997
H           1.02199616787616   -1.76827628697072    0.66973871726329
H           2.04413301934558   -0.75694840516224    1.23393234957553
O          -0.84711172574011    0.41566865823405    2.16086553704949
H           0.73749930951026    0.69663102454583    2.13310220702508
H          -1.24150962896010    1.11488184421547    1.61914223534282
H          -0.90173260527340   -0.38543184275677    1.60192026553250
O           1.12103228879381    2.03070991545669   -0.44928896892067
H           1.41258800295238    0.70177786062517   -1.28372509560664
H           0.15126516044123    2.09041087243729   -0.35705551282308
H           1.44753974852570    1.77644714616919    0.43265978121363
N           1.54299407768043   -0.29578630426025   -1.62498996622430
H           1.88166830894993   -0.86296259946188   -0.78993561779772
H           2.18410461096866   -0.34545502603089   -2.40817048659690
H           0.59120016628306   -0.68558300360268   -1.88607605549937
