    26
        -50.47250302  Gyration_radius:  2.48732418918 Dipole_moment: 2.877
 S          -2.23208257292272    0.34317199505200    0.20744700013775
O          -1.10875426024687    0.84849004004977    0.97328495488140
O          -2.29387758056673   -1.11315851503935    0.22678600873486
O          -2.29720618850995    0.87285537927892   -1.14124006982774
O          -3.53584503450318    0.85754029108283    0.94585575142757
H          -4.20694004608823    0.62448284661841    0.31361605851643
H          -0.95226926394000    0.63788265003599   -1.96255745679565
O          -0.08611250545208    0.53821410676925   -2.43814209313107
H          -0.29625613435190    0.54739111647726   -3.37307872245200
O           2.63526849262262    0.62111124547806    0.51106620898036
H           3.46569284167266    1.08775063548806    0.60655368691086
O           0.86572585895179   -0.29887133625661    2.41313270029240
H           0.11189474036693    0.25179866605843    2.13161915595749
H           1.62534527295891    0.04172566718983    1.90607240852028
O           0.76168703442457    2.20070432696634   -0.37208331349285
H           0.58117479792486    1.86501349103308   -1.26238520951169
H           0.01615585590087    1.87034003559765    0.16850585851846
H           1.96724297640910    1.29433712629734    0.19018036059784
O           1.59027997589275   -1.24588288748850   -1.22401271005950
H           1.01231799545748   -0.65945126704897   -1.74806603204148
H           2.13411387114353   -0.64948781151822   -0.67847836759938
H           0.66056559481434   -1.91996483299455   -0.11558096736190
N           0.04965658941840   -2.14042386105258    0.72510667088577
H           0.05275704983078   -3.12972877572525    0.94445350218137
H          -0.93380798107695   -1.79823297104746    0.52066432972988
H           0.41327260981763   -1.54760735126389    1.53128028601085
