    26
        -50.45253299  Gyration_radius:  2.55256017252 Dipole_moment: 6.114
 S           1.59181022321899   -0.04493633788587    0.02271968252715
O           0.71734208631463    0.87536687329119    0.88522941790943
O           1.98982039875081    0.59696194152770   -1.18725007766366
O           0.87130446733247   -1.29104877311102   -0.18550541867133
O           2.80788841786488   -0.29547176446620    0.90445500873463
H           2.47552665600562   -0.62945942905885    1.80991431514633
H          -0.26669158784576   -1.17936638543491   -1.37708271049897
O          -1.03785352864253   -0.98190633627208   -1.95634903412871
H          -1.27615495961475   -1.80430715744781   -2.38744113280454
O          -1.57457432309003    2.93483871840955   -1.43016165492049
H          -2.26231770616113    3.28322632352729   -1.99890074413270
O           1.88313581675284   -1.23777334008787    3.07614816462379
H           0.89937435962535   -1.30675715050413    2.88636539808540
H           2.21115351607121   -2.13553161400727    3.16431861729361
O          -1.67343401165468    0.77754332021548    0.08392037185053
H          -0.27228652955525    0.86172385425739    0.58950619417222
H          -1.75125412840363    1.65798873825551   -0.36019665875587
H          -1.65978373793821    0.12982410940234   -0.64116007516263
O           0.04550450666937    1.43206063062876   -2.90294266214028
H          -0.41228928514025    0.58150161913768   -2.83468426961807
H          -0.90782070583867    2.51281608642010   -2.02559170771817
H           0.87977874395240    1.30043090276991   -2.42258735418909
N          -0.61167537475546   -1.50656737584999    2.24820379044084
H          -0.28371194166363   -1.61339668282070    1.29008127061377
H          -1.14393738256985   -0.64598783105454    2.28744280891590
H          -1.23885398967019   -2.27177294982508    2.46154847006548
