    26
        -50.45352424  Gyration_radius:  2.5738399484 Dipole_moment: 4.234
 S          -0.55239861965830    0.94687908443467    0.89019954053893
O          -2.03793239409185    0.95631709720821    0.61435289859590
O           0.19847638359578    1.15037676507004   -0.32446776807295
O          -0.16260596905664   -0.27727922753939    1.56927610080064
O          -0.36648572990791    2.12704735157480    1.83983315385480
H           0.43956123823919    1.88473895678817    2.43248971620970
H          -0.28515332717188   -1.63050363838140    0.66019905174907
O          -0.46753153547597   -2.37295068032284    0.03668972528999
H          -0.47453972832819   -3.17466928678683    0.56264838769843
O          -1.91592817139296   -0.54168212431033   -3.19832679028126
H          -2.04751201280944   -1.17054398199774   -3.90924995370113
O           1.64792947084892    1.20051982754003    3.02632351232580
H           1.28379862580999    0.30939656118509    2.95950361632544
H           2.27494267574267    1.29162185524675    2.25310133636668
O           0.50535886539026   -0.83945716172826   -2.13177454907934
H          -0.96079259282943   -0.58670728198687   -2.95288732628734
H           0.49413553785846   -0.03704368172135   -1.58013940225397
H           0.34823294587991   -1.56986809379470   -1.51876908936009
O          -2.69701722596327   -1.02454382031124   -0.72590091928537
H          -1.98836467914402   -1.66265395525603   -0.50602240809011
H          -2.37724013855512    0.12080988450020    0.03299339477992
H          -2.55261083266474   -0.78087881233837   -1.67657854089903
N           2.88372562214153    1.39266656687366    0.68384604295043
H           2.00320361804644    1.36072056166015    0.17038682193616
H           3.47529767775370    0.65332641652301    0.32530049911494
H           3.33145029578559    2.27436079795672    0.46697296898231
