    26
        -50.44833784  Gyration_radius:  2.53196305856 Dipole_moment: 7.407
 S          -0.66699677274660   -1.20041715019423   -0.58564532544155
O          -1.16948244320175   -1.31129781014382    0.74406040575440
O           0.81933687898092   -0.79004543230717   -0.57943434747211
O          -1.37896831704047   -0.25386651112717   -1.42292560605969
O          -0.62863932175747   -2.56529265382806   -1.26651682917123
H          -0.29118730123208   -2.34336096860015   -2.21364611696720
H          -1.68803389064224    1.14135666539189   -0.58088356370415
O          -1.67619899612252    1.97652075099460   -0.05999413007647
H          -2.23591417199382    2.59903854336164   -0.52766668980972
O           1.15415961064854    1.19079749336396    2.67770504969511
H           1.39328016096612    1.63808235065538    3.49002706526553
O           2.46227863628174   -1.23115973622393    1.83473619183402
H           2.00133650315129   -1.34787630920494    0.99979584893101
H           2.07836123491020   -0.44241064769611    2.23911185331296
O           1.02541149583899    1.62259158157454    0.05284072636147
H           0.95375415144660    0.22880475026176   -0.34363486553644
H           0.10357040083036    1.94233733805581    0.01917821178721
H           1.25080243380806    1.56087338234098    1.00752376437608
O          -1.43371833120069    0.76282150288431    2.47496558584625
H           0.18015108529180    1.00145744080386    2.72649625210832
H          -1.70111388740646    1.35769394305595    1.76039607992715
H          -1.43562701159657   -0.12070448871955    2.07015112618221
N           0.16482362435525   -1.54038891308334   -3.46465089054669
H           1.14425630115195   -1.29837590493982   -3.39284405704807
H          -0.39260074323919   -0.71850599951988   -3.25522021184408
H          -0.03304134943925   -1.85867318713663   -4.40392554772430
