    26
        -50.45352423  Gyration_radius:  2.57389037286 Dipole_moment: 4.231
 S          -0.63236068971595   -1.21072241713099   -0.35702104757463
O          -0.34017017999140   -0.04959865320941   -1.16151506725125
O          -2.02815692680450   -1.13294248328268    0.21628200541557
O           0.34821980146543   -1.39870726177530    0.69887073424607
O          -0.68092292692687   -2.46573056112461   -1.22399755607393
H           0.27593602972152   -2.84540430851859   -1.22019051316053
H           0.52837004571083   -0.11742518274383    1.69788852277161
O          -2.29127726270934    2.94592037217908    0.51462162460084
H          -2.34536612536317    3.80298889924899    0.93969759414771
O           0.49375954751627    0.68866203549300    2.26564671721217
H           0.92131252691786    0.45785721497164    3.09231658606150
O           1.75962109022783   -3.03319586127095   -1.01001333239243
H           1.75736013059708   -2.72153372524080   -0.09678772167172
H           2.09315152641711   -2.26386545851659   -1.55411117531638
O           0.24376102574723    2.33365594914313   -0.02157408495188
H           0.53239961021373    1.98020734980114    0.83030388852641
H           0.06507751558173    1.55205701883995   -0.57426292847538
H          -1.36201753719412    2.84484289639617    0.19715753813446
O          -2.19420758839165    0.69481570902251    1.88542669710465
H          -2.15691723594637   -0.35427338904431    0.94306376260025
H          -1.26570068385902    0.78287459022816    2.18180809722062
H          -2.39256110815616    1.52278722651156    1.37632136249070
N           2.20998858491212   -0.75406031162126   -2.29632220149422
H           2.93022482108303   -0.10471634739877   -2.00516472031789
H           1.31080991217136   -0.36724975586678   -2.01032470832534
H           2.21966610678157   -0.78724354552269   -3.30812005262208
