    26
        -50.47250313  Gyration_radius:  2.48728446743 Dipole_moment: 2.883
 S           0.15359138426229   -2.26235565092698    0.05035498306906
O           1.06500212491548   -1.25254179781014   -0.45278869195841
O          -1.14463802019015   -2.20320006759335   -0.61044400242587
O           0.02917097295564   -2.26040884848699    1.49551009370189
O           0.78949766527667   -3.66115890985164   -0.33508359028638
H           0.22785049708551   -4.25688313964821    0.14872003416173
H          -0.39923282742774   -0.83890795350556    2.07378900462323
O           1.06809749813741    2.52445507740127   -0.27675198254864
H           1.61700804384198    3.30321854328107   -0.18338792616864
O          -0.60433852270902    0.06845553541300    2.42154631845588
H          -1.03137493883974   -0.06450722969508    3.26907847584175
O           0.89083059646172    0.68690746072164   -2.32313042855411
H           1.17551847983858   -0.08429029546781   -1.79878774789180
H           1.05514360121086    1.45466703222906   -1.74546242706502
O           1.88042758181323    0.60514983341840    1.28540973177220
H           1.74295149413931   -0.15267597930903    0.68208484450767
H           1.45319533733165    1.83146956995067    0.33484090791984
H           1.16942256288561    0.52565427270152    1.93814270985206
O          -1.47431606736724    1.78480077362764    0.48071361304472
H          -1.68927847387020    0.82558865352430   -0.77653427413822
H          -1.24639755319763    1.20451108227680    1.23156821411349
H          -0.64232596576504    2.23037748674657    0.23892737917145
N          -1.58271513583696    0.16704759211072   -1.60335689228825
H          -2.36758823766561    0.23237256682365   -2.24097154347867
H          -1.47581531132634   -0.82067055609268   -1.23039467856871
H          -0.65968679596035    0.41292493816097   -2.07359213486177
