    26
        -50.47250313  Gyration_radius:  2.48729880821 Dipole_moment: 2.883
 S          -1.27668235471301   -1.56109229495018   -1.03809595195939
O          -0.27539187158772   -2.48752316985999   -0.52361507221492
O          -0.67928936099534   -0.33377259447584   -1.52832141965597
O          -2.35298779118869   -1.34201114630842   -0.09071281866812
O          -1.93370365317530   -2.26455905136650   -2.29625607053946
H          -2.42170683802858   -2.96627045655235   -1.87930736173207
H          -1.90735390393812   -0.44857538492547    1.15090006924373
O           1.15902719931901    2.49273438390323    0.18320903773808
H           1.30054245481567    3.43945351701281    0.19711262087122
O          -1.63041631989291    0.16126939437287    1.88420445234132
H          -2.20742842559049   -0.03639340448587    2.62334752076037
O           1.84804322434103    0.60084621957084   -1.69872938466924
H           0.93738507965218    0.32243209163852   -1.90830995218406
H           1.74357032204825    1.39217236050503   -1.13923134722793
O           1.08011198490646    0.46954218230832    2.05010852306945
H           1.20766774002268    1.28310962094597    1.52949410420732
H           0.11357242502526    0.34227407313613    2.09556151917762
H           1.62964714037234   -0.63561542520412    1.03834552612553
O          -1.34346778384217    1.91935580409471   -0.25572125499135
H          -1.22333026702889    1.14736176865503   -0.84461632493207
H          -1.64099201648123    1.53836584954188    0.58347129502827
H           0.18621809174215    2.35449436505663   -0.00941207579758
N           1.88922636936321   -1.22356559084028    0.19242323660245
H           1.04548704546718   -1.80725749933069   -0.07871648898463
H           2.69477311962679   -1.81082555278478    0.37425940028441
H           2.05747837976003   -0.54595006965754   -0.61139178189367
