    26
        -50.44833792  Gyration_radius:  2.53173690339 Dipole_moment: 7.402
 S           0.15395605035616   -1.09574927401826   -1.00224926272606
O          -0.31247645153528   -1.14608392931145    0.46669524830297
O           1.46222299115526   -0.53759973713992   -1.10157023561186
O          -0.86206055817501   -0.39078637208250   -1.76035434428367
O           0.16167882241453   -2.56991745502204   -1.39525020964140
H          -0.83008060190551   -2.83612112570959   -1.31891371429269
H          -0.68939801104880    1.24763824929413   -1.56822883065928
O          -0.60931577259108    2.18016898361397   -1.26325773163848
H          -1.18687267770301    2.70203765171596   -1.82327841585594
O           1.58208442189027    1.76235771682169    2.07535260022394
H           2.04707064926852    2.40185576716264    2.61560110922581
O           1.67462871071226   -1.05726092894979    2.64870977823314
H           1.74960157584493   -0.10039462642919    2.54014184070507
H           1.08650018237951   -1.35462777914831    1.94947135833450
O           2.09947707062408    2.02912844287387   -0.49022557251578
H           1.26157061982540    2.34924571982438   -0.85274625925433
H           1.89848273957759    1.88630109404641    1.14182976367470
H           2.14120651783330    1.09644137921407   -0.76010941647255
O          -0.87841865693366    1.16178838582617    1.25187861167508
H          -0.58809780309846   -0.19683522084451    0.83368153693493
H          -0.06084019338141    1.41457956272214    1.73527870617091
H          -0.87142029302190    1.68617839775342    0.42839276174402
N          -2.36962762277564   -2.74248395921541   -1.12325207174884
H          -2.44634815822930   -1.78450896965884   -1.44952911881168
H          -2.60393511483287   -2.77302078194506   -0.13985745994756
H          -3.00958843671564   -3.33233120140658   -1.63821066180470
