    26
        -50.45452901  Gyration_radius:  2.5108592616 Dipole_moment: 5.104
 S          -0.23143781469358    1.47605651029814    0.75479988562537
O           0.12133598892558    0.09048817812284    1.33403275420379
O          -1.64174099953838    1.68937189179973    0.76275848203884
O           0.37043341372699    1.57991367624565   -0.56180807024999
O           0.45428999587025    2.42209712428959    1.72851955215213
H           1.37212096640800    2.01315118790250    1.94799095390092
H          -0.43748709189861    0.76493413822080   -1.74439890117125
O          -0.87038598957349    0.10751877277454   -2.33618952159866
H          -0.75568541609372    0.42721819771865   -3.23259807980750
O          -2.28989490343229   -2.58906443274990    0.22891440840581
H          -2.82507737907702   -3.24274684511590   -0.22306148654033
O           2.60312969442656    1.18402496128201    2.21474125504673
H           2.78677774553601    0.75299075047034    1.32440052708827
H           2.27887171731161    0.48162658678135    2.78433710933089
O          -3.06206029714086   -0.18825371756496   -0.60307210469268
H          -2.76459033955495    0.51898038764152   -0.00631965264442
H          -2.50641592381610   -0.09779384810320   -1.39076849771508
H          -2.69641033556150   -1.71094025806442    0.02770665373364
O           0.08347901567334   -1.67917637338538   -0.46277772855799
H           0.12263101830635   -0.65443523132102    0.61503991372135
H          -0.71630185931306   -2.18191547972760   -0.16814011795575
H          -0.20004748746440   -1.20015487725625   -1.26117142759067
N           2.76544543175787    0.08081572975160   -0.17913117385319
H           2.42758712826959   -0.87365723387071   -0.21742941373552
H           3.57922603523086    0.15315669254637   -0.77585770461242
H           2.03220768551095    0.67579351141281   -0.56051761458916
