    26
        -50.45369319  Gyration_radius:  2.60968026952 Dipole_moment: 5.089
 S           0.88605432945508   -0.78685413739337    0.84956230006227
O           1.94019872687938    0.14794896682917    1.06725544425390
O           0.54214833421094   -0.87962945780204   -0.64951284400951
O          -0.34381608340936   -0.48907144026544    1.56423808052815
O           1.33679407695773   -2.20357348620640    1.18246597545059
H           0.46340813375019   -2.73854059326128    1.27630685427018
H          -0.74005111762803    1.10947090528003    1.45509262684604
O           1.43700054939457    2.85031424892168   -1.86238483467823
H           1.32548581688073    3.75470738954966   -2.15883144090594
O          -0.97070629327633    2.03378780262695    1.20607944799622
H          -1.74124999235555    2.27205716333391    1.72454143521528
O          -0.99707212664827   -3.12540661871783    1.33577442050492
H          -1.26296379301151   -2.24266080028554    1.62785324830603
H          -1.26112283786641   -3.19278259496641    0.37822610408336
O          -0.57302725739781    1.22747363819766   -1.37316667586615
H           0.07739984865443    0.00738105675331   -0.99606491966085
H          -0.85312827461082    1.62858651550181   -0.52853869868280
H           0.16395194890451    1.80440254894098   -1.70499313717945
O           1.70138283435663    2.84324695264250    0.77387408742117
H           1.68287838962705    2.89839137956635   -0.90465090804009
H           0.77658327888150    2.82478975678280    1.05703882089161
H           2.02746563561995    1.94403548475400    0.94428355725385
N          -1.43378629386560   -2.99064466929543   -1.30459676562551
H          -1.20086550591517   -3.80109867873133   -1.86425200694684
H          -0.69428339720011   -2.30347730255497   -1.42307429215814
H          -2.28867893034295   -2.59285404059690   -1.67252589005693
