    26
        -50.45369317  Gyration_radius:  2.60977633854 Dipole_moment: 5.086
 S           0.04330177001937    0.04811534853503   -1.45779049744406
O           1.10682011252692   -0.31576149007205   -0.40390294816948
O           0.01196610583511    1.45665265532557   -1.67585777121593
O          -1.21951909013983   -0.52492171732266   -1.02306752640992
O           0.53286173947704   -0.68487295792154   -2.70049072289271
H           0.25026376409015   -1.66254032769035   -2.55306632045372
H          -1.93021987515033    0.38925393098946    0.15326910229883
O           1.07020117778771    2.99238747430565    1.88642945605718
H           0.90647131578121    3.57390343838955    2.63021396976261
O          -2.19392810104443    0.90861260747542    0.94715150838246
H          -3.06141960789731    0.59183486971134    1.20492870671773
O          -0.33899636147617   -2.92581309663092   -1.96615166537961
H          -1.03329653631385   -2.43727398106175   -1.50298682768772
H           0.32296228917026   -3.19375346729965   -1.27253409456431
O          -0.89328212538631    3.28017423998144    0.13088374139557
H          -1.54935902832356    2.65924095752305    0.47699391092898
H           0.40866477040557    3.23489791915654    1.19107079911358
H          -0.53179564832831    2.84052507273322   -0.65646299957746
O           0.34950611965772    0.46415075181802    1.83770141091317
H          -0.60668967218318    0.61063149534550    1.70732258267865
H           0.82341418307111    0.01401236565912    0.56257886650792
H           0.74189359241042    1.37071950634139    1.93813922315663
N           1.50204464698677   -3.23187710646667   -0.04297201597055
H           1.23948726861064   -3.52614195808072    0.88920563923446
H           1.68294709856840   -2.23210652259554   -0.01454393472856
H           2.36570009178753   -3.70005000814001   -0.28606161270437
