    26
        -50.44833798  Gyration_radius:  2.53177553989 Dipole_moment: 7.399
 S           0.54285637475573   -1.39130468505300    0.08727718487066
O           0.69723962968050   -1.02684184486399    1.45708974998382
O           0.93184589885511   -0.22240744118519   -0.84013489616118
O          -0.79615960420411   -1.81284127008209   -0.27796202293594
O           1.54842305632882   -2.47018199760749   -0.30341374679866
H           1.30951529822804   -2.66530558988685   -1.28580054996258
H          -1.92372551003975   -0.80026717941966    0.39579669162000
O          -2.49782984457042   -0.05916793377432    0.69603238739272
H          -3.40412116772591   -0.35052033030446    0.58071621834675
O           0.18919127278559    2.86596327865737    1.28772486966980
H           0.11382105039813    3.71089966200248    1.73211080421220
O           2.67035306703980    1.94979626757261    0.14802986586547
H           2.34763035716390    1.12471484291730   -0.22390483295849
H           1.91444348601915    2.34925809039268    0.59747308955642
O          -0.76909667219042    0.87738020738138    2.71878198427714
H          -1.56610653503938    0.62022498135832    2.23432233874786
H          -0.12330798721564    0.18092871492077    2.51276003187012
H          -0.11783828294819    2.17240843437228    1.92938928520559
O          -0.84621947958579    1.53712829385929   -0.77441840075864
H          -1.57601083580619    1.10038795332804   -0.29511824942409
H          -0.46222705505671    2.18444351848109   -0.14208016333387
H           0.19659119463544    0.53319044699575   -0.86523745926771
N           0.57179982566651   -2.64513534919973   -2.65437685609146
H           0.86871483482150   -1.84963061066051   -3.20399656157639
H          -0.34431586760500   -2.45039679606613   -2.26339431333038
H           0.52453350561668   -3.46272365411459   -3.24766644902115
