    26
        -50.45462891  Gyration_radius:  2.52316204316 Dipole_moment: 3.144
 S          -2.22757151597847    0.31292685427920    1.22697810790110
O          -2.46782829626278   -0.44021186606993   -0.00455379612109
O          -1.45361547832139    1.51146537040685    0.98708392962169
O          -1.68214019762964   -0.53976788082840    2.26543349456595
O          -3.64769527135955    0.78615851516790    1.73181304919695
H          -4.05426111754802   -0.05069284851483    1.92778751113674
H          -0.41468361085689   -1.31742289942708    1.71065590336048
O           0.42722604274111   -1.72914999562018    1.37850247398441
H           0.58764864569422   -2.48754998640857    1.94215635115306
O           0.00749441405546    2.01422564028815   -1.18086951997385
H          -0.69876121661026    2.16252195348956   -0.52335535153688
O           0.89794415290570   -1.70466803099845   -1.28944655275865
H           1.69275412089951   -1.10389478270722   -1.32721946187421
H           0.71197125741210   -1.83846861401812   -0.33865527061085
O           1.21348906002124    0.92020175696973    1.06714587600083
H           1.17674496047607   -0.02287238306424    1.28495511024635
H           0.75664477886237    1.74297395360246   -0.62377107791312
H           0.32785338398958    1.25089647387333    1.29571150985061
O          -0.95640866428677   -0.19833170166182   -1.97598056591875
H          -0.17667235018354   -0.90760982988843   -1.75543453910375
H          -1.65219899192476   -0.32250436740939   -1.21788627689078
H          -0.54970425908420    0.73149794012263   -1.79676913004069
N           2.87233442412424    0.10433591965726   -1.24328528568473
H           2.81716222622306    0.80204506598621   -1.97480112033613
H           3.82437859211136   -0.23594410631916   -1.20804943606387
H           2.66789492052498    0.55983987909972   -0.35814592218942
