    26
        -50.45462884  Gyration_radius:  2.52321142769 Dipole_moment: 3.144
 S          -1.16575520860638    1.11772800821878    1.98952487514215
O          -2.14768066873732    0.90283701101847    0.92593704395042
O           0.03048442524874    1.76738489415241    1.49968974592201
O          -0.91011355316602   -0.10708001153382    2.72265950926982
O          -1.83951637270720    2.12030427962320    3.00742216656436
H          -2.56409871254728    1.59187501453616    3.32331526329022
H          -0.53966397614399   -1.27182160740277    1.71025741615342
O           0.77807538966281    1.93453422725970   -1.05023920928012
H           0.51762158051668    2.26720789209313   -0.17016897603548
O          -0.22363034188682   -1.96711322780687    1.07360261389850
H          -0.35451053592887   -2.80686458075184    1.51671658667901
O          -0.65793581010789   -1.57296540191149   -1.57134038627989
H           0.27973020187828   -1.47450789773163   -1.89567255801024
H          -0.58749961193730   -1.80768632540331   -0.62452966131140
O          -1.44767668296733    0.78173179017854   -1.46679022530961
H          -1.82257929900146    0.86101480377858   -0.50381745337107
H          -0.55806303538460    1.30112496491621   -1.43568337647666
H          -1.17893834102799   -0.25537355620897   -1.57534976238981
O           1.77500416794079   -0.10709077240282    0.54454940117000
H           1.34889497400319    0.56760738556592    1.10056734926593
H           1.28274562221575   -0.91836590015270    0.73895159303639
H           1.37164010120001    1.19776864461435   -0.82661681219158
N           1.89162806251119   -1.09898214437166   -2.24051303371614
H           2.44389563756727   -1.87665687633463   -2.57764438665284
H           2.25872152581068   -0.82165791590276   -1.33434438083781
H           2.01922045160007   -0.32495269804251   -2.88048333247283
