    26
        -50.45462895  Gyration_radius:  2.52316646505 Dipole_moment: 3.145
 S           2.29260645219801    0.74463372768127   -0.86896807065331
O           1.15763146102036    1.53319628126206   -1.29676098180043
O           2.11415666872291   -0.67774579118105   -1.16334367765113
O           2.66125726459038    0.95099678654238    0.51827664082703
O           3.52413714857865    1.21756301653317   -1.73786087580188
H           4.22400919452591    0.70727970037390   -1.34567785007798
H           1.62678879211545    0.20708082089193    1.46454163741684
O          -1.26491146001119    0.59041303211372   -1.87147768116585
H          -0.41915651494947    1.04798996993293   -2.03977779844467
O           0.92333339983471   -0.18838442686979    2.04540862466669
H           1.32928550519527   -0.30422995255393    2.90590214523543
O          -0.80193693208659   -1.96143805215146    0.94097450654987
H          -0.13111818321300   -1.42008051324832    1.40295182875160
H          -1.65435975661064   -1.44835292475932    1.00543850590140
O          -0.73746989782380    1.56951966901635    0.67220510101076
H          -1.49450983756378    0.89975778719211   -0.97892699095558
H          -0.28669138032274    1.05424026209943    1.35735867902618
H          -0.02461610112288    1.82993774423302    0.06402827177442
O          -0.16368426783528   -1.65899382284598   -1.44238375301788
H          -0.70576426215412   -0.82152965873543   -1.70104495730953
H           0.81411603995741   -1.32058751845493   -1.38205492601111
H          -0.44125212152678   -1.88698964878216   -0.42718504689506
N          -2.95374556260429   -0.36724765373512    0.97278651255905
H          -3.58396275498195   -0.44010277288731    1.76081079159777
H          -3.50812370102560   -0.39585194955276    0.12615842622795
H          -2.49601919291061    0.53892588788556    1.01862094823338
