    26
        -50.45462885  Gyration_radius:  2.52310963105 Dipole_moment: 3.146
 S           0.48826779570347   -1.87459060379658   -1.67708629698587
O           0.25790280120024   -0.63028434700185   -2.41204557880064
O          -0.55710265220042   -2.13537526374394   -0.71163234900425
O           1.82598367286036   -1.91388889509342   -1.11857321741489
O           0.41265407442592   -3.03309107215332   -2.74840278702090
H           1.16470757081326   -2.82260276689448   -3.29075743795932
H           2.09813683013440   -0.59272678971546   -0.28219716542314
O          -2.29839316666276   -0.34896695808164    0.21960130545401
H          -2.00876210182503   -1.16521927732710   -0.23066186688507
O           2.22221876749845    0.19615567684411    0.31013278861898
H           3.16950424617773    0.30158598824267    0.41088993211912
O           0.49057286539418    2.26514451531246    0.06547944226863
H           1.20248884700167    1.59562116374293    0.10333134327072
H           0.03286815127009    2.22296643692260    0.95021856073547
O          -1.15728479749629    1.18758253864555   -1.45192423622127
H          -1.73702178979496    0.65342466059417   -0.78814756051299
H          -0.45082561075883    1.73476622316870   -0.85090516228236
H          -0.59276965011543    0.46539498032273   -1.93577722421807
O           0.02670455498016   -0.87306370876279    1.64110540514141
H          -0.10368681034912   -1.55521670410187    0.96022358835231
H           0.88452564808578   -0.48073917488343    1.42102234558210
H          -1.70715292068614   -0.31594232995169    0.99070078969033
N          -0.79693933705757    1.87165626186727    2.38073885873037
H          -1.80352529813789    1.96095798870600    2.31941470473398
H          -0.48602559990048    2.39469077998134    3.18895358284035
H          -0.57704606056413    0.89176065715996    2.53629824519067
