    26
        -50.45462849  Gyration_radius:  2.52307877941 Dipole_moment: 3.141
 S          -2.09867838981164   -1.37348460446640    0.52263301569342
O          -2.04345244539159   -0.04644084184467    1.09589482343096
O          -0.91673273024498   -2.16710326357127    0.86164878838895
O          -2.34605545179916   -1.38547543057019   -0.90620242473584
O          -3.32348790252972   -2.10687137472951    1.19917283833450
H          -3.32157747281437   -2.93034806323067    0.72382571182639
H          -1.02533743090488   -0.97314750341429   -1.68408451836856
O          -0.21920519765871   -0.62817701682262   -2.15277770346533
H          -0.29335112429582   -0.93148237555342   -3.05895055110526
O           0.14187688684177    1.16357579024747    2.02135700641219
H          -0.75827543698490    0.78883536075153    2.06614983836122
O           2.11540820507336   -0.53334051337249   -0.78221998318891
H           2.25776519754897    0.45235413049710   -0.73568330686572
H           1.32524141402054   -0.66046252403638   -1.34442492593355
O           1.23568678271543   -1.06575962408943    1.48070854190735
H           1.69059456067855   -0.89732583921683    0.51913819236516
H           0.90044214154024   -0.14464546233355    1.79838667848698
H           0.36895034977534   -1.59625311764233    1.27589578033667
O          -0.68525485790906    1.62333128651658   -0.58678197296032
H          -0.49749092366699    1.01995574395620   -1.32078925407959
H          -1.39437497382098    1.17961900956495   -0.09044758801791
H           0.13488057717528    1.61962368126482    1.16266507934027
N           2.23039427868576    2.13168520008242   -0.54162499133462
H           2.51104454969408    2.45571550423384    0.37555087224912
H           1.24809744944523    2.35915672386284   -0.66828971619092
H           2.76289193463493    2.64646514391935   -1.23075027088620
