    26
        -50.47229269  Gyration_radius:  2.48085780916 Dipole_moment: 2.003
 S           0.38598499784710   -1.87733079927807   -1.23434143247728
O           1.32695775844529   -0.93267696757586   -0.64016968302502
O          -0.58072305816475   -1.20935082521126   -2.08155263599699
O          -0.20648427105850   -2.74717901825021   -0.23658270229232
O           1.23178877353080   -2.82430189204177   -2.18268209105524
H           1.56341380081726   -3.46283203524227   -1.56047473230255
H          -1.13483110181170   -1.84173585054019    0.70088984601550
O           0.72629304328555    1.98183159870598    1.73264529302100
H           1.07848161466101    2.44558784760700    2.49249043075106
O          -1.63680654772654   -1.26055193422505    1.32811889206875
H          -2.41786844293758   -1.75681220731472    1.57777524963143
O          -1.78750013848669    1.41543584379753    0.76445764893257
H          -0.99070610132355    1.75425542610411    1.21124605083922
H          -1.82736159243014    0.46700970792648    0.99125950683961
O           1.00642210630392   -0.59702870451217    1.97957417278090
H           1.23965915744930   -0.81189685877158    1.05226643064870
H           0.88779018035626    1.00782937021244    1.89496534200583
H           0.10321630262591   -0.92634657701498    2.08497497985125
O           1.66717392674800    1.72910086163858   -0.85156763012593
H           1.48079491513975    1.98054693965788    0.07097093954556
H           1.77755272301437    0.75888307822968   -0.82843231506467
H           0.20680556842705    1.66395018501426   -1.48033728463773
N          -0.79561693677028    1.36232542893341   -1.67750765140838
H          -0.75142619575212    0.33335372507849   -1.92361267940155
H          -1.22405426257953    1.89914724296215   -2.42227386627315
H          -1.32895620961384    1.44878642411704   -0.76210007887713
