    26
        -50.47229306  Gyration_radius:  2.48046687247 Dipole_moment: 1.995
 S           1.00908390940564   -2.04340202763310    0.01772963194291
O          -0.35186772175065   -2.43001330553822   -0.29350685200746
O           1.05225199005897   -0.96357818919022    0.99910635584963
O           1.81820900375595   -1.74497176833790   -1.14805295813648
O           1.68547257858261   -3.30351814868356    0.70052568310929
H           2.60772005544892   -3.12405327991632    0.55154989319823
H           1.11578720008046   -0.52588676090155   -1.91148082205231
O           0.72315983097486    0.28337413949029   -2.32837376627981
H           0.81049182835864    0.15966746415198   -3.27480450998120
O          -0.30336135906548    2.58711209129717    0.82098526646080
H          -0.12099259287953    3.49673635809683    1.05719015922646
O          -1.57977431694928    1.30853158809037   -1.25592925664866
H          -0.79721535692033    0.96194544100087   -1.72494202253720
H          -1.22801144315051    1.91868101620316   -0.58269255943422
O          -0.83490412323437    0.36977502757398    2.37938313273047
H          -1.80117861753078   -0.28064266836924    1.29471649315460
H          -0.05501102291061   -0.14588069925956    2.09672042700275
H          -0.68957291750925    1.26105274112571    2.01386639615928
O           1.84779979666913    1.36905768745055   -0.00268084178582
H           1.68992407394892    1.21343724510376   -0.94403043113864
H           0.56854651008718    2.18775332432916    0.53556899052830
H           1.69662784971980    0.49740528672386    0.41907445339375
N          -2.16783452959509   -0.67626684677470    0.37625130363310
H          -3.11754654731995   -1.02061138077193    0.45283134808400
H          -1.50040650979337   -1.45081526949466    0.10051719218089
H          -2.07739755847669    0.09511094423345   -0.34952269665818
