    26
        -50.47229290  Gyration_radius:  2.48022938752 Dipole_moment: 1.994
 S           0.51036236196858    2.05727720312139    0.83574815143612
O           0.60356286855630    1.25666996118316    2.03947250907299
O          -0.60143462447614    1.63283489890512   -0.00956812111712
O           1.75087202486002    2.14754331857054    0.09033433154224
O           0.18279511994044    3.53460074184366    1.30710287077586
H           0.48416441123588    4.04031991272040    0.55982580501439
H           2.15413542508109    0.65511293987660   -0.32555229967494
O          -1.26642754216366   -1.69470568962096   -1.72879082199181
H          -1.60445990175165   -2.09633556667931   -2.52935189918569
O           2.35011159610635   -0.26011776737685   -0.65217730027554
H           3.30181833880540   -0.36000699203893   -0.59771937349163
O           0.69009464227880   -2.30148495939029    0.11073806288533
H           1.35439776110431   -1.63513280983614   -0.14853777558638
H           0.01279869816067   -2.27701116190635   -0.58912179885358
O          -2.52627347682223   -0.23102710285431    0.24526985751123
H          -2.28531696111991   -0.80192161828476   -0.50649934334520
H          -1.56743913451269   -0.77266399975456    1.39433607650996
H          -2.01489098630074    0.58986753311793    0.10872186648821
O           0.15554914589600    0.42448047501059   -2.25543524779197
H          -0.14399926137338    0.99253306562842   -1.51509633673755
H           1.05897733589775    0.17385159125355   -2.01846025870733
H          -0.75188663546532   -0.88502775023649   -2.01293955560177
N          -0.68981616019951   -1.01074567892305    1.94899177845507
H          -0.16563536060237   -0.09991048182398    2.07918079423444
H          -0.09330416689671   -1.63489334219259    1.32892697328912
H          -0.89875551820621   -1.44410671031438    2.84060107515316
