    26
        -50.47229291  Gyration_radius:  2.48069499216 Dipole_moment: 1.998
 S          -0.51592172555388   -2.17625958012049    0.44016913034619
O           0.57927945887771   -1.34942567324709    0.93799842913108
O          -0.56016132873192   -2.19141547590785   -1.00769973770553
O          -1.77836030766341   -1.83126198716259    1.06479810525199
O          -0.20371817842417   -3.66267189991686    0.89254121310881
H          -0.53117531641428   -3.65854700311116    1.78565137903681
H          -2.17249926334261   -0.36109906060826    0.57016487198585
O          -2.36434699508560    0.58113943188937    0.32847184169748
H          -3.31359632908233    0.63282276862388    0.20642099919865
O           1.24373797938789    2.37428526480833    0.52191314889599
H           1.56435171193523    3.15712381690273    0.97008580416088
O          -0.65433559819830    1.84255182504064   -1.39942157801071
H          -1.33610367644408    1.43624182755195   -0.83135778986506
H           0.00429258683848    2.21533052505691   -0.78579014238577
O           2.53523611566434    0.06118244529870   -0.25778972274972
H           2.28250292329634    0.95400405051352    0.03906115866585
H           2.00939497483956   -0.54498396678305    0.29900586195219
H           1.61469652815897   -0.13517954078837   -1.54117665100753
O          -0.21863039076702    0.90600930753175    2.10156232547912
H          -1.11188531091479    0.97979683096493    1.73835341738650
H           0.09156654615316    0.02203504706772    1.81369381200457
H           0.71164780762896    1.85978487428460    1.19521181629314
N           0.75544855475381   -0.25118633996053   -2.15990300403516
H           0.15057324773457    0.61029936201902   -2.01176924336049
H           0.22395110752832   -1.08235760646050   -1.77524517113093
H           0.99405488781660   -0.38821922349140   -3.13495025435525
