    26
        -50.44005964  Gyration_radius:  2.53962010026 Dipole_moment: 5.049
 S          -0.68065237782639   -1.38258228870961   -0.59371406021793
O           0.60525827190265   -0.93155350801807   -1.04329249851224
O          -1.74798779400624   -0.39294089423642   -0.79571228463780
O          -0.68523278211370   -1.83781494838924    0.79109802019629
O          -1.08433495684877   -2.65348202546448   -1.44167089158386
H          -1.66990098186249   -3.11914146535669   -0.85285526942550
H          -0.53947613641205   -0.76910482522743    1.91044002644671
O           0.55832959864391    2.71115995643497    0.16074206685205
H           0.63409046887760    3.63463271998060    0.40748852759934
O          -0.56816104090164    0.00211621835033    2.55247043627322
H          -1.01907500382279   -0.32030677480862    3.33492094999970
O           2.83942972399164   -0.66540841011342    0.35526338736361
H           3.49516313145306   -0.43947014189368   -0.30698840271357
H           2.01390621330033   -0.84582864945191   -0.14142130447026
O           1.85585397568871    1.28635373098021    1.87016897759864
H           1.14974904841951    0.81687253591048    2.33436128527176
H           2.33734128476160    0.58690324594847    1.37036257653509
H           1.16077236010154    2.19081643096094    0.78144391250551
O          -1.57051136986285    1.52519427258070    0.73567556452358
H          -0.73273597691892    2.07907844669697    0.41601502158976
H          -1.70526351901020    0.74597017729192    0.01487478960395
H          -1.25837662735328    1.02645598627444    1.55898533879447
N          -0.82538744605278   -0.66064127624023   -3.60412497117993
H          -0.99388855741515   -1.64626945797605   -3.77055937444507
H          -1.57936352851433   -0.33367193838903   -3.01092705367468
H           0.01045401180145   -0.60733712708958   -3.03304476029793
