    26
        -50.45054758  Gyration_radius:  2.52020652119 Dipole_moment: 7.531
 S          -0.62422356846003   -1.23065586734147   -0.16275274762253
O          -0.08514502319770   -1.12017336906296    1.15805842545534
O           0.38293428810906   -0.76353070448957   -1.22071838936024
O          -1.85437583654774   -0.48858647430758   -0.36146240617931
O          -0.84607614066990   -2.69462939982975   -0.52547492571325
H          -1.24990871977575   -2.64693906933035   -1.47191268210213
H          -1.71073183453043    1.04454794068039    0.24976086733764
O          -1.47491770223485    1.95710867506155    0.53398771638122
H          -2.24578494131097    2.50313683696386    0.36915672675461
O           2.42915749375344    1.64132431473951    1.42838038027234
H           2.99420579046983    2.26330974706242    1.88764402828426
O           2.73802069052442   -1.18337001651134    0.92159983070952
H           2.85768864359726   -0.23633303602774    1.06307471714157
H           1.80059111416204   -1.35008304343259    1.06871668669279
O           0.91327462815827    1.65187873490107   -0.77972719470919
H           1.60686889923889    1.67203913735310   -0.08504001925222
H           0.67370340263026    0.22896552080849   -1.08271476492044
H           0.09469583511569    1.95271890894962   -0.34404273439827
O           0.15192277660071    1.14938963676361    2.67231654416652
H          -0.49727908738628    1.61976155833088    2.12996125954575
H           0.07297975837433    0.22178448618911    2.39885395813845
H           1.64348406743860    1.47742213669461    2.01135654836367
N          -1.85313759098993   -2.07298579030873   -2.78494681750614
H          -1.09935778714085   -1.77136947891687   -3.38826287499193
H          -2.27366509235435   -1.25655434189385   -2.35399994052299
H          -2.54492405355557   -2.56817702305990   -3.33181217197254
