    26
        -50.44071524  Gyration_radius:  2.48828802659 Dipole_moment: 3.257
 S          -0.67402940491022   -2.12935318211983    0.27686441891058
O           0.36759406493389   -2.14799980526697   -0.71582611173413
O          -1.83942534701394   -1.32601207034727   -0.09809596016329
O          -0.21214877395824   -1.76233451846812    1.60803819993791
O          -1.21032855334223   -3.61517660141496    0.38528511135641
H          -1.92448395335732   -3.53692545799697    1.00963665424476
H          -0.14034584666635   -0.28255204456973    2.03075494564559
O           0.03421747261742    2.67467739517064   -0.94792574143607
H          -0.09286067358068    3.56061543362001   -0.60398994120429
O          -0.22182302487543    0.69489542097790    2.25628691855185
H          -0.54039086847355    0.73082112990848    3.15968135940787
O           2.62811027413532   -0.83237119936240   -0.21254737404190
H           1.81040879301719   -1.36079948753039   -0.31323165730001
H           3.15645175732402   -1.01362720373656   -0.99132823020697
O           1.86498468474532    1.62145461223112    0.59680064004770
H           2.23836154788774    0.77922819437657    0.26601030204303
H           0.81966482168413    2.29727296577690   -0.46703625010500
H           1.33520089855374    1.36864050347414    1.36368395063929
O          -1.66883551642903    1.14879659396653    0.18494564549915
H          -1.14300255171555    1.09948446368296    1.05057812453639
H          -1.04280780243249    1.60878591905592   -0.50613144277190
H          -1.77349520615216    0.14496688237901   -0.08479834574576
N          -0.52284100846072    0.23333048306207   -2.10302813569348
H          -0.15800189615277   -0.65054665495626   -1.76261772321143
H           0.19843838193574    0.67987190884618   -2.65476698904284
H          -1.28861226937659    0.01485630927884   -2.72724235816394
