    26
        -50.44071490  Gyration_radius:  2.48822632337 Dipole_moment: 3.254
 S           0.16863142130463   -2.23400230247726    0.21806773975088
O           0.74687605505886   -1.61309450090762    1.41143608096656
O           0.83993636880504   -1.88540675453469   -1.00607389141408
O          -1.27114850149029   -2.01973991127266    0.18231369824179
O           0.38168130802491   -3.79073284347052    0.41317487036120
H          -0.04404404557450   -3.95927644817907    1.24768593649706
H          -1.86841459093446   -0.64862751985326    0.55283592360251
O          -2.17712781665504    0.24163233032935    0.90639394850321
H          -2.95914505768228    0.05984802112295    1.43013086055431
O           0.58195495802042    2.75740386570841    0.35352503644609
H           0.18054765552885    3.52916452812492    0.75677937186062
O          -0.40658869504766   -0.27326426987181   -2.72099613035217
H          -0.02707425093048   -0.92133538962003   -2.09328261963348
H           0.21612834737269   -0.21394969393235   -3.44722447758677
O           0.13942846570131    0.76238082714412    1.88243056839473
H           0.57674498687075    1.44531882185983    1.23194402851043
H          -0.82392522290865    0.66556667341810    1.58106944758205
H           0.54346832720431   -0.18119262773277    1.68755937323545
O          -1.26010219774141    1.81643245391281   -1.24957177412794
H          -0.04284125627405    2.45706350063751   -0.36060001073701
H          -0.94598888237852    1.12936333463845   -1.87194690187661
H          -1.82142623407381    1.34048495021320   -0.62424320047598
N           2.12055710694591    0.49109996452611    0.04218252484637
H           1.80260925897647   -0.35437630272156   -0.42070149438768
H           2.95002681830214    0.24526257247183    0.56701990271055
H           2.39923569357691    1.15397673045380   -0.66990881148118
