    26
        -50.46365472  Gyration_radius:  2.41690005792 Dipole_moment: 4.556
 S          -0.06238375216318   -1.65275739184727   -0.14180498441688
O          -0.87261841837812   -0.50237779244915   -0.53328377714154
O          -0.69343410972045   -2.30168037838248    1.10166592698874
O           1.29858581844746   -1.21415975970410    0.19785560966795
O          -0.04216060195228   -2.64101813208652   -1.21548649983322
H          -0.11057584846752   -1.75574376448543   -2.39946767574133
H           1.46787134521810   -0.11682305149135    1.35017209713998
O           1.46604568778281    0.61867614209159    2.01771248855353
H           2.26534865658436    0.51194939236609    2.53494976036970
O          -2.11579474337114    2.03920944624726    1.56018669523679
H          -2.04437120231399    2.80029435666570    2.13845047478476
O           1.70794872892610    0.45885282657075   -1.82243246567781
H           1.26495393389355    1.22188096617266   -1.40192047293729
H           1.77499267238668   -0.20196164678781   -1.09772170951591
O          -1.06218024017017   -0.26373621544973    2.61431145512798
H          -0.91709642889847   -1.54912998115843    1.74083758920507
H          -0.16447639714970    0.11406374751011    2.60432965123705
H          -1.63277074981823    0.42164313042570    2.21247314540305
O           0.10582456354655    1.86800234318751   -0.08376448904117
H          -0.33156267107808    0.99806848726343   -0.25523931715889
H          -1.44012564713528    2.14789545024889    0.86520371635465
H           0.67154131885588    1.71095855330010    0.68684453138638
N          -0.13767845548831   -0.89097111876781   -3.06650521043080
H           0.66702287623851   -0.26666513374350   -2.69727397778079
H          -1.01753732490763   -0.41939346166267   -2.86263868371479
H          -0.04536900087502   -1.13507702401651   -4.04745386810190
