    26
        -50.46365465  Gyration_radius:  2.4167982768 Dipole_moment: 4.554
 S          -1.45400262724638   -0.02997678231583   -0.80085999774898
O          -2.60076556798215    0.47015881402748    0.09373317313313
O          -0.62458897501993   -0.95170308126685   -0.02904625366145
O          -0.65336218790168    1.12635854569651   -1.22739363350341
O          -2.03408853484564   -0.71826187248712   -1.94964151528424
H          -0.95137982519393   -1.67649223494133   -2.26583548399860
H           0.07296166185289    1.99430075942996   -0.09621211601619
O           0.54491192447820    2.42113865603577    0.66648562130912
H           0.60255339925481    3.35413842002518    0.45667657044674
O           0.60773375934712   -0.48954064136248    3.23405164660355
H           1.15440205441046   -0.07938231934232    3.90615164606056
O           1.53290377502271   -0.15582767736530   -2.01862307776266
H           0.77407178028426    0.45667278050697   -1.89487504723899
H           1.93299396088362   -0.21387568616277   -1.12869731458894
O           1.72238875982172   -0.11627409170715    0.72647800980122
H           0.83368449257604   -0.48164770236816    0.49356327180603
H           1.58353250827095    0.83970021370912    0.79980070332521
H           1.14249215191248   -0.52723482779127    2.41920107923555
O          -1.33435753482500    1.15816146258551    2.21502312194268
H          -2.18708839952242    0.72144347599708    0.98293641912894
H          -0.82753849636245    0.42659545649702    2.62091619439234
H          -0.66387665087517    1.74645627431922    1.82367870272729
N          -0.01191970827950   -2.23376336991933   -2.28528849028267
H           0.07099338765498   -2.85706148530174   -3.08215469024713
H           0.02704244983588   -2.72967820834705   -1.39611711892490
H           0.74030245244986   -1.45440486812169   -2.26395144063101
