    26
        -50.46365463  Gyration_radius:  2.41688228753 Dipole_moment: 4.551
 S          -1.32514226949247   -0.55294782052039   -0.83323860231461
O          -2.61083553308720   -0.41989666395717    0.00039265964979
O          -0.27152686320991   -1.10540242857687    0.01411025417518
O          -0.93555930195110    0.78127372212847   -1.31077784010005
O          -1.59338734876983   -1.45232526481215   -1.95090497807999
H          -0.24187926334692   -2.00950670012167   -2.17979630093927
H          -0.58931005603424    1.89776015423824   -0.21710875073122
O          -0.31942405119697    2.49482270562625    0.52929987119382
H          -0.56441318775312    3.38213381873361    0.26375947618623
O           0.59491408833410   -0.09600008114077    3.27193060206324
H           0.94469699958394    0.50630300523980    3.93047021821793
O           1.58425520273705    0.26319153083701   -1.96777437475338
H           1.94214923684629    0.38735128422991   -1.06680067924397
H           0.66057391169667    0.59284649580450   -1.90049952024230
O           1.62965512602977    0.50230702100548    0.77395769914975
H           1.14651401279320    0.00630330142604    2.47392703260673
H           0.92339095978818   -0.14970817698491    0.54245142296561
H           1.17857350027180    1.35956566217266    0.78499275334883
O          -1.73823051973462    0.75491728105094    2.10626931223302
H          -1.28489852375072    1.51330013601160    1.69625138541818
H          -2.34337312282094   -0.00162706318261    0.88276694663603
H          -1.03520513908229    0.25604776264937    2.56860680125595
N           0.82921967570987   -2.22202593003393   -2.14189975233414
H           1.14849851879799   -2.82113428470879   -2.89654728337994
H           0.99189403319209   -2.63098108330209   -1.22302080389275
H           1.27884993441866   -1.23656838383318   -2.15081752908646
