    26
        -50.46365461  Gyration_radius:  2.4166166253 Dipole_moment: 4.552
 S          -0.96173855169775   -1.33255666360341   -0.23618622278804
O          -0.82707052939463    0.01550668228429   -0.78191146352478
O          -2.14709320198757   -1.35286426621933    0.74343034568800
O           0.25825282141596   -1.70017547888417    0.49626964006280
O          -1.23579558443949   -2.28320454114598   -1.30898544151500
H          -0.47157339042365   -1.66769078394317   -2.41713850558839
H           0.71993565670313   -0.75627002987052    1.70361096330811
O           0.96701537346011   -0.07160426580664    2.37937392712074
H           1.39018030329657   -0.54465728539110    3.09703997613003
O          -0.87419955800091    3.05105851407635    0.99390908918148
H          -0.53201396292944    3.70505517945002    1.60545606504226
O           2.06349891307204   -0.81534369755511   -1.23735006689458
H           2.04951493822130    0.10953671251571   -0.92145380619178
H           1.54680060701695   -1.30287444471399   -0.55779642434960
O          -1.65626579034122    0.70846002425060    2.18773177446911
H          -2.05502218434624   -0.53195585428230    1.32889964216193
H          -0.74014210774400    0.50958296384731    2.45211724564387
H          -1.59974442029671    1.53942062910732    1.67471668030403
O           1.17918293653187    1.45414839104596    0.04401054101878
H          -0.10647671738940    2.67226688014271    0.52642930689546
H           1.32700362089464    1.10299649219253    0.93475687741870
H           0.38405523247048    0.96908262215799   -0.28767119910102
N           0.17811260851002   -1.02838848602629   -3.01934437014097
H          -0.28554270957152   -0.12153300386735   -3.04756047920261
H           0.36317633570920   -1.39992545640484   -3.94565981308185
H           1.06594936123969   -0.92807085335019   -2.40669429208519
