    26
        -50.46365464  Gyration_radius:  2.41660869849 Dipole_moment: 4.554
 S           0.63139338075061   -1.47598663317967    0.42345606240758
O           2.16372373047255   -1.42058509535322    0.54251432606592
O           0.23009975394945   -0.78014631354660   -0.79638528690109
O           0.04570667793057   -0.80994716224893    1.59539006495388
O           0.22583474967528   -2.87642472117395    0.35901637341016
H          -1.02508387664257   -2.75972317459590   -0.42350283395593
H           0.37354975642848    0.74074788869439    1.81774495974844
O           1.33501997976834    2.36382672486946   -1.92133026341723
H           1.41529072537554    3.31849490687118   -1.89003334287949
O           0.56914771729422    1.71447966926361    1.82717320580724
H           0.62505186211509    1.96707771539468    2.74963204037776
O          -2.41270573310552   -0.43029000574012    0.66837102952156
H          -1.60789469152394   -0.59955111982295    1.20694815340337
H          -2.20537700856922    0.39872142907275    0.19384717877016
O           2.62191027001446    1.06794270728138    0.12571154019226
H           2.29539358318673    1.38474274050689   -0.74022285477662
H           2.01938031775138    1.45881372039778    0.78368236244223
H           2.43682010751642   -0.46653646789685    0.34184379708036
O          -0.91773407998654    1.54171363700082   -0.53618357947377
H           0.43197423924008    2.14630477359284   -1.62358724351103
H          -0.46383429205999    0.67915626302944   -0.70205920366398
H          -0.53422061963440    1.86557705477360    0.29243911202161
N          -1.89216758072681   -2.38358493276915   -0.97145653345166
H          -2.58057743583163   -3.10029372584794   -1.17820068480976
H          -1.51376031668435   -1.95104484709768   -1.81281323397715
H          -2.26694121671108   -1.59348502153367   -0.33199512535224
