    26
        -50.46365457  Gyration_radius:  2.41689307899 Dipole_moment: 4.547
 S           1.11829589508295   -0.53966098253513    1.10138270527380
O           1.22668149968712    0.41109412981273    2.30540673065087
O           1.10256312114367    0.25493092338814   -0.12402645058585
O          -0.13149140220638   -1.30401826530110    1.21822225925937
O           2.27787314534184   -1.42591040809502    1.11004895532317
H           2.40584155519207   -1.71730029121187   -0.33482432558857
H          -1.51009152581656   -0.49094420230147    1.21360031132509
O          -2.31057143356880    0.08979298585021    1.12197983055939
H          -2.99009432320217   -0.30349097318669    1.67113493058035
O          -0.81897757985214    3.12923972535805   -0.77658856507724
H          -1.63066573376926    3.61349811109250   -0.93621957470684
O          -0.32216678533630   -2.16743209290200   -1.28556859464090
H          -0.34322136638670   -2.04632132236336   -0.31023432895010
H          -0.74848332127063   -1.35815021628224   -1.63002450451183
O          -1.15698544924888    0.45264719019220   -1.40182462732925
H          -0.27820028875375    0.43826786457662   -0.94898179686479
H          -1.80362355486699    0.36026550166662   -0.68647410688713
H          -0.91616320681556    2.26282953669256   -1.21391196721237
O          -0.59713584195919    2.13222462432212    1.76909523249095
H          -0.46501467850964    2.58635030188751    0.91284841497176
H          -1.35162989371729    1.53299117297211    1.62614039156354
H           0.56221631222713    1.15851420084751    2.14728333179685
N           2.24852460870785   -1.77676933737202   -1.41444809551121
H           2.37157306676178   -0.82566789705483   -1.75852627793193
H           1.19807525222939   -2.02689189212662   -1.49972499096784
H           2.86287193889954   -2.44008838784076   -1.87576488695230
