    26
        -50.46365454  Gyration_radius:  2.41652489032 Dipole_moment: 4.552
 S          -1.18202887050807   -1.15981753696228   -0.12106975651295
O          -0.73399355366610    0.01146321010097   -0.86985090856529
O          -2.43105814716516   -0.77878084352535    0.69131077240426
O          -0.13016076786476   -1.59066681181002    0.81060961972219
O          -1.54167871221160   -2.23531885389476   -1.03962739781860
H          -0.57357360811219   -1.99182331130705   -2.13266789966693
H           0.39920694480612   -0.52899721255837    1.88481218066301
O           0.71558518175610    0.21812564824534    2.45771632501350
H           0.97029826210440   -0.17486139927874    3.29348040628572
O          -0.33727351063247    3.29147558292597    0.33450878372472
H           0.07130771957370    3.97958864323263    0.86214456155425
O           1.96365950969801   -1.39421296970512   -0.80949836383457
H           2.10504592470158   -0.43829787922190   -0.66232062671600
H           1.30141773875342   -1.64123180089148   -0.12625006985591
O           1.43556587599465    1.20089940827711   -0.06061004734704
H           0.59297687582588    0.81072560242986   -0.40018772093391
H           0.37893459851487    2.69877424033722    0.03930723802749
H           1.43012492497544    1.00819388775698    0.88882705605758
O          -1.67270765047655    1.40165012297371    1.80769343676731
H          -0.84178714177628    1.09733814027205    2.21476016947859
H          -1.40663618441260    2.09403688531465    1.16995622956683
H          -2.23104425238762    0.11012846206802    1.13303724778134
N           0.24155844856242   -1.60689094179959   -2.74972422512471
H           1.07290019381795   -1.55066212966370   -2.05730326235978
H          -0.02844853348829   -0.65448688588903   -2.99083713657637
H           0.43180871359434   -2.17635126731727   -3.56821662178955
