    26
        -50.46365463  Gyration_radius:  2.41653449449 Dipole_moment: 4.555
 S          -1.21350995029060   -0.94715071273118   -0.62233558705785
O          -0.80464106980573    0.45435643421340   -0.66497196862766
O          -2.38133207604042   -1.09129587711657    0.36801342929312
O          -0.09666825302566   -1.78036982441788   -0.15485265096750
O          -1.67241569370298   -1.37643234442015   -1.93951974956495
H          -0.79562251871667   -0.56140811594424   -2.81028384141444
H           0.54564194223425   -1.44139589223105    1.27139098249675
O           0.92641933351190   -1.10673508780268    2.12549441027378
H           1.24450449167827   -1.87785260103268    2.59666929894687
O          -0.23544926390751    2.59478345219376    2.06651896097386
H           0.23153867631695    2.90542076504874    2.84382887171158
O           1.85627572881621   -0.69490118247952   -1.58840212930621
H           1.24875656820890   -1.28564488115953   -1.08999237718548
H           2.03065196021978    0.03847903540938   -0.96616260379701
O           1.45143195448679    1.08609339179734    0.46985961907041
H           1.52190532425693    0.41681028862997    1.16678640960897
H           0.57470748304437    0.91513522752690    0.04605243379742
H           0.43990603172906    2.27085116029192    1.44176525914555
O          -1.48264082133738    0.17554541754763    2.40871107270758
H          -0.62715907908427   -0.27657670532865    2.52017004542314
H          -1.25634314801356    1.10819304517694    2.21950521003920
H          -2.12459136286719   -0.57106412873291    1.19773818906327
N          -0.02719542863757    0.11466143907631   -3.19216364085653
H           0.08096017504757    0.07390623185622   -4.20062318491157
H           0.86047055216962   -0.18497582381526   -2.64798811420858
H          -0.29560155641120    1.04156727841398   -2.86520833478574
