    26
        -50.44586468  Gyration_radius:  2.48366324736 Dipole_moment: 6.909
 S           0.31713886865077   -1.25028439313769   -0.06004945539287
O           1.20959297010791   -0.14100210948654   -0.46889138441851
O          -1.02677534184813   -1.08434436174485   -0.53079173079600
O           0.38752508804931   -1.36501205652393    1.40184821695819
O           0.91405761800116   -2.54902249878548   -0.66565394359724
H           1.79969662909052   -2.61130491665976   -0.24740282345518
H          -0.33486233302469   -0.15341369397002    2.08788202042505
O          -1.48301106117287    2.74322347489507   -0.76690651403233
H          -1.91954269607504    3.57047771772407   -0.55573184156570
O          -0.67942744926262    0.72518702077630    2.42269378937967
H          -0.44556948652563    0.76595213386826    3.35238019810419
O           2.95574968101204   -1.92390388312557    0.86517568367377
H           2.18307954259570   -1.74674126853936    1.42673581486234
H           3.14625286895675   -1.09652612973275    0.41177822239283
O           0.53114359353413    2.00067411808257    0.53587140758699
H           0.88377347741281    1.11175894360904    0.03556572762349
H          -0.23368673863697    2.38488636710985   -0.06809943875241
H           0.07212739683666    1.63418270841760    1.36049851983408
O          -2.70350114780453    0.76543678742753    0.39197849382937
H          -2.26393522891187    0.00723853929844   -0.04199370242775
H          -2.37297803297760    0.75672761891976    1.29824329360301
H          -2.07399719741105    2.00365638440937   -0.44187096725403
N           0.28478139281617   -1.02940465997639   -3.20751423410991
H           0.88567973914480   -0.50742861766149   -2.58036592936282
H           0.60081249793168   -1.99209322122087   -3.17583939254279
H          -0.63412465056078   -1.01891999401027   -2.77954004047839
