    26
        -50.44586475  Gyration_radius:  2.48356547038 Dipole_moment: 6.909
 S          -0.26873497640141   -1.21631043273965    0.34101260399493
O          -0.76344253623452   -0.32637789010975    1.35017087232449
O           1.02437464746111   -0.77414999868937   -0.23041766887508
O          -1.21440174601127   -1.38380173436035   -0.76935378379836
O          -0.02367634234072   -2.61484128760595    0.96848203149191
H           0.25175524150161   -3.16415746204996    0.20312066555821
H          -1.62741110160279    0.01005158862303   -1.35871412796856
O          -1.70646277914735    0.92538943060553   -1.75701935184893
H          -2.14121725231789    0.80990894466048   -2.60458204680763
O           0.66270596898125    3.12223299064096    0.35361665451145
H           0.58354076569943    4.04815990841761    0.11723826629279
O           0.56003213935716   -3.25359173441916   -1.51192427712659
H          -0.22901342129087   -2.69347878429842   -1.59791923515496
H           1.31331610483870   -2.65749534889326   -1.57256420094327
O          -1.68162815262234    2.12094123583041    0.84895456759779
H          -0.23071243218752    2.82444562644398    0.69274916433059
H          -2.05751219966826    1.91130952414849   -0.01444261845706
H          -1.42852084587679    1.25578159200762    1.22826659264144
O           0.81453518138446    1.36323396186434   -1.43205831703168
H           0.86937122235010    2.11877128032892   -0.70867016619415
H           1.00110698510783    0.43868724807230   -0.90731376975283
H          -0.16391352383321    1.29258265109868   -1.68221860844081
N           1.83312805765703   -0.94295988672861    2.67839955155455
H           2.03120177968894   -0.85473349513394    1.68850578168345
H           0.96698536347444   -0.43873124080342    2.83132365110151
H           1.62459387207260   -1.92086670689044    2.84535778932667
