    26
        -50.44586475  Gyration_radius:  2.48358589126 Dipole_moment: 6.908
 S           0.13875351322508   -0.59282348199224    1.13888819349726
O          -1.21768354781558   -0.73615526831514    0.69770605467052
O           0.71199104953350    0.73310204694576    0.81093185503510
O           1.02351309064817   -1.61604622645158    0.56832361382392
O           0.19078938509918   -0.73106978759075    2.68421100536056
H           1.14989165220098   -0.68042128012299    2.88655937217218
H           0.90686709877836   -1.63765643840655   -0.99606574816996
O          -1.45950493837631    1.57666101279942   -2.38656337516691
H          -1.63892514316199    1.75922525810733   -3.31067892263542
O           0.87642090339621   -1.46895915925076   -1.98260293714188
H           1.60039827295637   -1.97234799979592   -2.36094461113736
O           2.77809969604636   -0.52431268709528    2.27888135912106
H           2.73096131355191    0.36573430627385    1.91556206044302
H           2.48056083845246   -1.11676825886015    1.56882900792090
O          -1.93503478522239   -0.92110476493597   -1.85873316314632
H          -1.14795654860985   -1.39778379760632   -2.14849522642874
H          -1.87584659974616   -0.91066804470412   -0.88261219763055
H          -1.80922027190230    0.65929152649064   -2.19134816355453
O           0.88025072889021    1.08467374158267   -1.61893049921628
H           0.94927535902058    0.11475061504101   -1.90069458069324
H          -0.06317735256172    1.40761241205371   -1.93943590427296
H           0.82107649983718    1.02416058627106   -0.54281468126981
N          -1.67060829465559    1.64362052028802    2.43533593161447
H          -0.78390194605134    1.79301053868632    1.96806822033670
H          -2.17488037956634    0.97733132474689    1.86125380776123
H          -1.46210958393827    1.16694329585051    3.30536951867536
