    26
        -50.45054779  Gyration_radius:  2.52013186536 Dipole_moment: 7.523
 S           0.62043459391685   -0.49175112366255   -1.14228874557712
O           0.33995823519297   -1.45052598199930    0.02129511460600
O           1.27933721542120    0.69670563688737   -0.69408986900026
O          -0.63302822635539   -0.24757991426188   -1.82970533354161
O           1.54562478038679   -1.30550875416905   -2.04005712054910
H           0.96428762570847   -2.11011043971637   -2.31455187127944
H          -1.55918342470815    0.83017598934362   -0.97817512867780
O          -2.06753778754026    1.37771955179005   -0.33712990472294
H          -2.93179516432342    1.52338564890597   -0.72619799939782
O           0.38588145848199    1.56018960907369    2.83855244074929
H           0.33204069742594    2.12444992441151    3.61033352595179
O           2.59185659612717    0.06183386374276    1.73615888919204
H           1.94869825156495    0.50780099685238    2.30067493144115
H           2.33158411375768    0.27146262790144    0.83250263553541
O          -1.16370635108894   -0.27657610847949    1.65546259297109
H          -1.63563039107318    0.34479404003954    1.07111557867566
H          -0.25861946275727   -1.01801134187986    0.75841498591387
H          -0.59065112561444    0.27925564846302    2.22703633407011
O           0.14494418399611    2.85639617726066    0.55031550721057
H          -0.74108341569414    2.60554932095591    0.25205222240430
H           0.35489895908590    2.15206174720134    2.04310106199398
H           0.74456920217565    2.29136462857721    0.03776059791360
N          -0.26731335047364   -3.04542991561155   -2.47839174863979
H          -0.40616122972773   -3.63466582863556   -3.28860603227253
H          -0.95994244565702   -2.30429355711183   -2.46779040724015
H          -0.36946354818831   -3.59869245585286   -1.63779226771662
