    26
        -50.45856956  Gyration_radius:  2.54484496555 Dipole_moment: 7.097
 S          -0.91253268173420   -0.96165008602715   -0.59051077852708
O          -2.19783220129643   -0.72363931505719    0.19733787173126
O           0.20916851989510   -1.13404274782537    0.33092655066492
O          -0.65056289322118    0.20814213987766   -1.45551982108253
O          -1.11801372519055   -2.15213906215121   -1.41212796719078
H          -0.13812665448620   -1.95815590160741   -2.51924170911257
H          -0.21840621694417    1.53161263083211   -0.64076228051000
O          -0.02267873020077    2.33556281889927   -0.09528012267423
H          -0.17169540861128    3.09008025349515   -0.66698672038765
O          -0.61141219870036    0.96769954162361    3.69683602762429
H          -0.39073498850426    1.66979883412376    4.31017210775573
O           2.35113660220220   -1.73842071623682   -1.04848380524619
H           1.60668469466110   -1.47739055452314   -0.44862063286716
H           2.70419971099391   -2.55039279622980   -0.68081970329111
O           1.30557854663723    0.78986807057327    1.85871146452194
H           0.98209484652217   -0.00163909012940    1.38868374054059
H           1.10549204417878    1.52242888778025    1.26186241579729
H           0.18645589917714    0.82888550160200    3.13182688496452
O          -2.05457863972032    1.44035919855101    1.49703781306346
H          -1.67369033276930    1.22089955807410    2.37858617552352
H          -1.35079071417784    1.91677808660752    1.01689760122096
H          -2.17454491774354    0.15116876304241    0.74334999656124
N           0.64961142099974   -1.39529241779900   -3.02005792750633
H           0.74733298275984   -1.54995959618711   -4.01717862773747
H           1.51905112060782   -1.58800249222901   -2.45785326902066
H           0.31879390467276   -0.44255948909480   -2.75878530481475
