    26
        -50.45856954  Gyration_radius:  2.54495070991 Dipole_moment: 7.095
 S           0.61506204488902    0.50738321116159   -1.21289444165208
O           1.19427073136105    0.09312606585455    0.06384558427448
O           0.26288904641410    1.99171739638988   -1.16436734402546
O          -0.61478274658494   -0.27458557506248   -1.46095310551527
O           1.55617903642580    0.31741074949836   -2.31419626666595
H           1.36923090679698   -1.12168335638124   -2.65843609817528
H          -1.63610131762210   -0.28688959225461   -0.21265469046201
O          -0.35505357295320    2.46856453805912    2.95976633639413
H          -0.86343198244853    2.56888959470035    3.76556877792213
O          -2.26130620485624   -0.21093027724211    0.55262727220291
H          -3.12503259574400   -0.45697451135095    0.21830484088158
O           1.96721534517992   -2.40168902398407   -0.12534335124550
H           1.67256185883676   -1.47239663898898    0.05263572223237
H           2.89006395790885   -2.43191200338236    0.13264460536917
O          -0.12538769434426   -0.12332964026528    2.39789084142785
H          -0.15921459882966    1.50484733753122    2.87086776608504
H          -0.98357662353659   -0.34131488366754    2.01210430757827
H           0.47454956446452   -0.05278923121632    1.63157265662098
O          -1.53443052985704    2.42243981237001    0.56107427358489
H          -0.46714007927477    2.20613678090657   -0.46804158967506
H          -1.93151830706662    1.53638527675501    0.66230590831059
H          -1.07558821477562    2.60735752746590    1.41284470530160
N           0.90209442458703   -2.09475512596384   -2.50706739299158
H           1.37851569036426   -2.49488755196102   -1.65741933852374
H           0.88165213329530   -2.71242808325304   -3.31069200826955
H          -0.03172027263501   -1.74769279569982   -2.20198797097822
