    26
        -50.45856951  Gyration_radius:  2.54489005666 Dipole_moment: 7.089
 S          -0.62343657088716   -1.13631175157088   -0.65346667743752
O          -2.10526750715194   -0.91239759368343   -0.36426285737843
O           0.14463863921607   -1.03551868407520    0.58620573421629
O          -0.15235045939960   -0.10143420532167   -1.59826654486698
O          -0.49171362168060   -2.45956784703104   -1.25870993890805
H           0.78449450540522   -2.34422744141449   -2.02135296858549
H          -0.07892011158819    1.37667632699051   -0.95667671949556
O          -0.11304428951635    2.27523025967101   -0.53995590941656
H          -0.11096045095595    2.90553584478185   -1.26177369162304
O          -1.81725263586032    1.48362323648277    3.07599476670853
H          -1.84246308461719    2.29634568819440    3.58265275636137
O           2.64549459148718   -1.62850781922246    0.08363656285503
H           2.89707490549704   -2.32902956946158    0.68790454349769
H           1.73499186543750   -1.35315871806355    0.36128516525650
O           0.59512609206024    1.21974408002944    1.98188162694179
H           0.56008756904027    1.81975312631171    1.22580418507292
H          -0.87403784927554    1.34277610810749    2.82006286165892
H           0.47963968166847    0.33215588207316    1.59330479338477
O          -2.49856315042598    1.43398316707320    0.49151656932053
H          -1.70341933902111    1.90010954003808    0.16985641529579
H          -2.30371298678541    0.03537371174036   -0.00906973773265
H          -2.41014790009560    1.40228877962397    1.47211416522667
N           1.66393802770493   -1.78916863937301   -2.34789228242774
H           2.31138323197996   -1.79526308641287   -1.51741670991679
H           1.21994838693539   -0.84740725029364   -2.38599560526565
H           2.08847245081686   -2.09160314518423   -3.21738051272711
