    26
        -50.45856944  Gyration_radius:  2.54504939456 Dipole_moment: 7.088
 S           0.51498221084135   -0.42516772722122   -1.28778009015143
O          -0.62210035424517   -1.28685575795279   -1.83013643558908
O           0.84905982860408   -0.84335935532919    0.07243174564673
O           0.08342105251229    0.98856278460096   -1.26579980607757
O           1.65208072475901   -0.58396612220666   -2.19133347041328
H           2.42774214795037    0.66897255920440   -1.96365447050538
H          -1.04345440578454    1.30435715084519   -0.15550849687522
O          -1.78094628040876    1.43672908149126    0.49319518498113
H          -2.21795190617584    2.25109692754771    0.23961232785961
O          -2.49647296402728   -2.36652874723286    1.77153803542376
H          -3.16817574146156   -2.33476268873087    2.45391000003617
O           2.93396156739262    0.51646323048118    0.88657491913784
H           3.59296324408139   -0.11942809236189    1.17033074320542
H           2.12324300618706   -0.01540741383591    0.68207546686905
O          -2.72770001178601   -0.93604792608333   -0.47502005366008
H          -2.71028843298261   -1.59198344602664    0.25966678363083
H          -2.55588723260575   -0.06969724866178   -0.05924248124856
H          -1.49854083331876   -1.17217341484907   -1.29855794783914
O          -0.68274418308278   -0.47853923233602    2.25372590427118
H          -1.11587986561483    0.32722559677975    1.94396878141259
H          -1.76954586495631   -1.76703169713732    2.06672721555181
H          -0.05072995841363   -0.70258016183633    1.54487718670537
N           2.58544814703230    1.62717614632595   -1.46850071395447
H           1.58236101628761    1.88612224464409   -1.35781094699213
H           3.14409685616093    2.30628351493452   -1.97301961309731
H           2.95105821304948    1.38053976493390   -0.51226974831745
