    26
        -50.45856905  Gyration_radius:  2.54523929675 Dipole_moment: 7.110
 S          -1.00813170661415   -0.94929358406184   -0.43043633541126
O          -2.12335371709659   -0.72706646908440    0.58752312496343
O           0.26454073616770   -1.14339765204039    0.26199921508307
O          -0.90575724287110    0.23892325377921   -1.30396219861906
O          -1.36917445730534   -2.12125470974074   -1.22479233074211
H          -0.61268714337715   -1.90367625145188   -2.49028354756466
H          -0.31985046237031    1.54228087528134   -0.55599836269838
O          -0.02048441249296    2.33355211297559   -0.03968435426649
H          -0.26115992078755    3.10064022854802   -0.56120675997331
O           0.07763452970510    0.89206972461804    3.76806572948221
H           0.41237621471349    1.57968593468677    4.34509129561130
O           2.10938837117517   -1.71307108212739   -1.50742717214539
H           2.52547520785183   -2.53049294384996   -1.22846510488786
H           1.49083999532560   -1.46656278773439   -0.77353485884928
O          -1.73761073986314    1.41358669402426    1.87650026296936
H          -1.20473582904023    1.17620149052437    2.67021260393594
H          -1.12949287909813    1.89748047838407    1.28585288521961
H          -1.99799504971816    0.13838642050880    1.13462289502314
O           1.62849529373044    0.74335634021408    1.60989907763183
H           1.32833359090629    1.48880089813960    1.07400456857957
H           0.75848067831347    0.76114242640304    3.06489955148838
H           1.22144530602977   -0.03730301780973    1.18925372235914
N           0.06961343803104   -1.33064718361754   -3.11859037621223
H           1.02826933058295   -1.53509140883712   -2.73412067699706
H          -0.20213547023727   -0.38357392618354   -2.78017126699245
H          -0.02232364167376   -1.46467585154776   -4.11925158698187
