    26
        -50.46357515  Gyration_radius:  2.63951871762 Dipole_moment: 1.777
 S           0.77290718864917   -0.47242638115727   -1.51010955357355
O          -0.46391194811929    0.28765632394172   -1.46002999852941
O           0.56742332561125   -1.84766707408333   -1.07062074713503
O           1.84931468076139    0.16965435601687   -0.75315325412527
O           1.21683125822629   -0.50237870295717   -3.00854098822214
H           2.14940169202359   -0.79834884465589   -2.98606311678185
H           1.36384601606646    0.37283330643183    0.78509032641451
O           1.05583674531122    0.53843680643800    1.70922142516286
H           1.82667047506254    0.42593250242937    2.26785847612296
O          -2.82937901448969    1.46093087204411    1.61458368790161
H          -3.18649568732238    2.18856960805197    2.12423024825668
O           3.73885385679839   -0.85511690059005   -2.27227868688840
H           4.33256350319312   -0.15963586600329   -2.56444005420839
H           3.24315838269132   -0.49478824317967   -1.50980797537213
O          -0.67961959398180    2.29252338706663    0.31755906566426
H          -2.09696242789364    1.84335009530564    1.06672310376746
H           0.01579736504985    1.99513556704993    0.91878747748696
H          -0.60619630683497    1.70138290223670   -0.45567097950393
O          -1.34161304986710   -0.61171103210549    2.37919442247933
H          -1.62824544305245   -1.24848903563184    1.02149059489065
H          -0.44920266413110   -0.23628294526550    2.25344837563497
H          -1.95757850950162    0.14978451958768    2.29432511631155
N          -1.74282769631971   -1.51524647334550   -0.02253971730854
H          -2.52977895563641   -2.13355864063259   -0.18474977624478
H          -0.81656052370921   -1.90665721924551   -0.38192971172342
H          -1.80423263860770   -0.64388285776483   -0.57257777048935
