    26
        -50.46357516  Gyration_radius:  2.63947864205 Dipole_moment: 1.777
 S           0.68357358732126   -1.59740589908509   -0.28565993182690
O           1.42774706853460   -0.36935622409912   -0.50487527375664
O          -0.37066425153973   -1.76232071040521   -1.27964569657121
O           0.14725703909479   -1.68559467579954    1.07393997270703
O           1.70113581794792   -2.77147765156647   -0.45736547832985
H           1.24903259899364   -3.55075289910448   -0.07514714978076
H          -0.79267463448572   -0.38913636911433    1.35502363277919
O           0.38307844351978    3.53909221531867   -0.27104521859173
H           0.49946970303190    4.37895735863408    0.17370349839945
O          -1.32800997316072    0.41936194707858    1.54494075073241
H          -2.04659476682992    0.13239694000029    2.11083932014613
O           0.20604391669647   -4.31696964656074    1.09294846121549
H           0.65280179317120   -4.62530784242212    1.88468390120437
H          -0.04031786360057   -3.38484948009269    1.25847279694977
O           1.23634479940216    1.60108985421867    1.31363422063584
H           0.81164466385101    2.85952747895430    0.30977608051342
H           0.40268736340261    1.31715034516070    1.71104790087806
H           1.48318775431918    0.87298315391910    0.71225663618348
O          -1.80278595800029    2.05423192667626   -0.60487707687095
H          -1.02451374465655    1.23825581649914   -1.63424494739743
H          -1.75148058253508    1.49384879825243    0.19292706919683
H          -1.13193215797259    2.76001493008807   -0.46962209394103
N          -0.33152421586476    0.62528345543636   -2.19841821996596
H          -0.53932171354844   -0.40292018019858   -1.99848009693376
H           0.60218617213387    0.71510034233452   -1.76748642416816
H          -0.32637084921158    0.84879705587632   -3.18732662340453
