    26
        -50.47250282  Gyration_radius:  2.48734165148 Dipole_moment: 2.870
 S          -1.79529056527275   -1.37454142791075   -0.17795244585758
O          -0.94008201593445   -1.05716585488893    0.94967984367393
O          -1.04375423676782   -1.94964123220499   -1.28674780863484
O          -2.62832682747667   -0.26542713907873   -0.60204254504306
O          -2.78762820850320   -2.50224555648263    0.32525143778063
H          -3.40637354675475   -2.53619289243089   -0.39603825827254
H          -1.78648484901915    1.04518653258163   -0.93787709923041
O          -1.25280644012611    1.87026968453313   -1.08172802165898
H          -1.76013095296233    2.40964714326017   -1.69000993929149
O           1.83983236645600    1.45699574124554    1.44339377526744
H           2.24784878236463    2.06058416408635    2.06441953980149
O           1.70343901386001   -1.29571192742230    1.44334407941946
H           1.90513480570451   -0.35314348970864    1.58833499512782
H           0.73184726259879   -1.35395849366036    1.50152425935974
O           1.42884285229485    1.38136018951593   -1.27916163471256
H           1.49997440783267   -0.21110878173869   -1.35799415024245
H           0.48135253750967    1.61468862708028   -1.29632854072685
H           1.71538690695717    1.53893531140704   -0.36145117032035
O          -0.75711684349567    1.51823882607392    1.63544757638518
H          -1.03827064481356    1.91883850000299    0.79976386563716
H          -0.94170254460818    0.56411525098387    1.52242953298362
H           0.85181489800016    1.52295480259873    1.59164185304870
N           1.46686801668214   -1.25684952692238   -1.17369039193437
H           0.46322352224621   -1.58282541511878   -1.28545911116990
H           1.71578407322396   -1.39469501962149   -0.14768818967239
H           2.08661824000431   -1.76830802618058   -1.79106145171876
