    26
        -50.46357511  Gyration_radius:  2.63944853059 Dipole_moment: 1.777
 S           1.28509961006437   -1.10884837969145   -0.46866742070278
O           1.54025663878975    0.17175029072169    0.16762485148320
O           0.80247406901512   -0.93508259874561   -1.83377440042090
O           0.37140835133667   -1.94420163644073    0.31317046332625
O           2.65623247282644   -1.85689450340788   -0.52966590166415
H           2.42417892172905   -2.78600321004540   -0.73140017514330
H          -1.01842642045161   -1.13277002617087    0.54391386543517
O          -0.90000807266336    3.21893989372596    1.25397005163781
H          -1.27393277069999    3.73640970026552    1.96749864919703
O          -1.84697616636535   -0.62551754500193    0.72426058424708
H          -2.55704536327735   -1.26947466223874    0.71580092020719
O           1.39973490325525   -4.19006031611553   -0.59624221521507
H           1.61260935829839   -4.76996325254042    0.13859645669054
H           0.78080789877249   -3.51709165848856   -0.24847854810826
O          -2.09345424806732    1.75124451124810   -0.62104530924619
H          -1.83265465518399    2.39912593394962    0.07085342626729
H          -0.75309166821411    1.69222874386898   -1.34977214848257
H          -2.12607546538137    0.88791972777093   -0.16632718426745
O          -0.01356692271217    0.92517602771196    2.22777223908755
H          -0.76268507181483    0.34773179409668    2.03060455896480
H           0.68588253469158    0.64127248660264    1.60897486093570
H          -0.48764282269391    2.42378107681718    1.67882319733129
N           0.27140778990134    1.56294092853819   -1.67829830620795
H           0.88137747433382    1.58291157661618   -0.84576518599811
H           0.54691862600827    2.24256973763971   -2.37837815852322
H           0.40717098852564    0.55190537932903   -1.99404916083337
