    26
        -50.45038886  Gyration_radius:  2.64387204807 Dipole_moment: 6.843
 S           0.92978320834394   -0.35070707763426    1.28844195266358
O          -0.42236761768418   -0.72771246381728    1.54053267588663
O           1.02449142267312    1.13449296638600    0.90140514932366
O           1.59360857917447   -1.12865633182166    0.25989295688661
O           1.75060577596044   -0.40604472236658    2.58002856973588
H           2.69774443283316   -0.17552228399134    2.26783589486990
H           0.59095742144830   -1.31468217227123   -1.04579555126176
O          -2.63648474947418    1.73040303367851   -0.69461144033915
H          -2.86938870714560    2.54924236363087   -0.25633306891982
O           0.03363101209231   -1.23838047786656   -1.85303898353878
H           0.43466683907105   -1.80358184291954   -2.51605625364770
O          -2.75852301917943   -1.33498481164279   -1.59174773850720
H          -2.98357625578356   -0.46663641837448   -1.93692239167546
H          -1.79303653731109   -1.40500021318392   -1.64835689215540
O          -0.09755504444232    1.43766742536479   -1.30835575115353
H          -1.05659585468361    1.61283950991808   -1.11200126779687
H           0.56276549329713    1.31938552481022   -0.02742599932137
H          -0.06837454070630    0.54238537674121   -1.69049213493270
O          -3.03951628668474   -0.28829166417972    0.92088540639655
H          -3.12393070797286   -0.93146603636119    0.19343950764162
H          -2.17097511921705   -0.46638258198917    1.31419621453746
H          -2.83334697891195    1.00096172655638   -0.03940643459289
N           3.91490690526911    0.14161204529888    1.32250019118393
H           3.93607386629884    1.12322848506752    1.08009016164257
H           3.52787184827777   -0.37841614996450    0.54091718380901
H           4.85656460447894   -0.17575319901539    1.51037801325894
