    26
        -50.46357510  Gyration_radius:  2.63948141327 Dipole_moment: 1.777
 S          -0.04724029139517   -0.84246363818928    1.54578732170641
O          -0.53609053327665   -1.99148240840132    0.79244456222837
O          -0.83765202231967    0.34442205953084    1.26939782868387
O           1.38142212187125   -0.62445123887232    1.31046099365259
O          -0.22249127742941   -1.14956333511353    3.06838868633507
H           0.49034126816232   -1.78672942354170    3.27754501025198
H           1.59543855304579   -0.14032999251627   -0.22675893272396
O           1.72481152414645    0.19720503639567   -1.14638653607491
H           2.55733413578730   -0.17070788014659   -1.44722703117665
O          -1.35406404352487    2.56515517879078   -2.08177438956558
H          -1.22697265086692    3.40865688642630   -2.51659120487162
O           2.10700567429334   -2.41418201462269    3.09883847206475
H           2.08124852282457   -1.83508748308140    2.31082502552864
H           2.75213966929319   -2.03083120127142    3.69749408807175
O          -0.49787681358312    0.13331296890446   -2.75095658581659
H          -0.80031774274904    1.06778235967695   -2.70889004357111
H           0.35667959214785    0.11769224577109   -2.27903725332105
H          -1.46203714945747   -0.43195943687754   -1.71098785403343
O           0.31538434001421    2.39070829860200   -0.03783664956038
H           1.03528936704783    1.88664394270208   -0.43930760482023
H          -0.79014765660874    2.58910444904200   -1.26677187216536
H          -0.10724949805882    1.76600897647871    0.58173477454510
N          -2.03546397549358   -0.70422231334655   -0.83268711116634
H          -1.99097678703859    0.08035155013668   -0.16329188984208
H          -1.50071463445038   -1.45264892458199   -0.29015947860604
H          -2.98779969240289   -0.97238467189124   -1.05425230574334
