    26
        -50.45038892  Gyration_radius:  2.6437729647 Dipole_moment: 6.845
 S           0.80709660808438   -0.94241477480967   -1.05477134759031
O          -0.70159090246517   -1.24032340035386   -1.05725057337148
O           1.35550638626670   -1.09399956826015    0.25297297414301
O           1.01001343833646    0.36511837337790   -1.64888683966589
O           1.35587721100915   -2.02032935850090   -1.99376273658130
H           0.94413073209602   -1.77749574598151   -2.89886648824282
H           0.68491003948939    1.55254170349932   -0.54029331695507
O           0.30731892351935    2.20692069388132    0.08999242841926
H           0.49938752501844    3.07490052062903   -0.27003730026523
O          -1.66428848482773   -0.30615587782856    2.75026140406626
H          -2.19421736947540   -1.07145172553903    2.97445250270531
O           0.70974480710168    1.82824504094831    2.84095531372980
H          -0.20356174852656    1.74236496025298    3.12780998929808
H           0.67798328007889    1.97482470026575    1.88296326466174
O           0.87744675880109   -0.90190116972332    2.92904774225753
H           1.14564168226462   -1.11974204262545    2.02270456775967
H           1.14729692660687    0.02597516301697    3.05609482320914
H          -0.71132108557652   -0.58931632090140    2.85900293826937
O          -1.85049071522557    0.53713648390458    0.26774810093694
H          -1.23635586945046   -0.51758919472725   -0.50835575670426
H          -1.85392679963146    0.22218921294163    1.21100062788295
H          -1.21431235291146    1.27396034793478    0.24062919083566
N           0.16037999371879   -0.98712948953802   -4.01071928207848
H          -0.82786657494611   -1.19866837243027   -3.97443033837972
H           0.45866851849118   -0.95280274549484   -4.97640937617127
H           0.31652906214912   -0.08485741395902   -3.57185252223160
