    26
        -50.45038889  Gyration_radius:  2.64366854978 Dipole_moment: 6.844
 S          -1.47148376674325   -0.53258059776995    0.45356991201255
O          -0.47131234025648   -1.07911468253984    1.31076160546033
O          -1.17196312992555   -0.85763422003160   -1.01936634383919
O          -1.65257915673583    0.90167423635800    0.57148543966464
O          -2.81256622566090   -1.23638645881581    0.67888941543080
H          -3.45247284774734   -0.72877496329933    0.06204181090837
H          -0.18176586817658    1.66279895063908    0.61187481659987
O           0.69856528423042    2.07038731257287    0.44761025178417
H           0.59400642921844    3.01297753880094    0.59071957572202
O           2.84738987581227   -1.21623155600153   -0.91538685865886
H           2.94987959288806   -2.02757591078117   -1.41333881834802
O           2.98194151316987    0.84297318413253    1.52109247649292
H           3.45548183572893    0.64352520514912    0.70883592696443
H           2.16307483887167    1.28751564553201    1.25257910463886
O           2.15548526804061   -1.76594532523933    1.54758656710896
H           2.49368121447764   -0.92021437305408    1.89435318435926
H           1.18991053825077   -1.67508349802193    1.56094991962750
H           2.60713535206697   -1.49241810053888    0.01527564779524
O           0.89798084669993    0.37027049877744   -1.68452101087699
H           1.65979189437269   -0.22953926417615   -1.46364100695941
H          -0.30336862452498   -0.36345111340030   -1.35244682243077
H           0.93924268835833    1.09497962966990   -1.03532691517107
N          -4.00967499283311    0.35253222919398   -0.93588073014922
H          -3.78350781769930    0.11127359957358   -1.89159061880955
H          -3.36538458838514    1.07110650359614   -0.62027066883168
H          -4.95748780352709    0.70293551971890   -0.89585586049421
