    26
        -50.43635107  Gyration_radius:  2.43702795541 Dipole_moment: 2.543
 S           0.51924217222589   -0.88387204148890   -1.46712348610966
O           1.57134856287834   -0.34945802245881   -0.65698846612818
O          -0.85496613463662   -0.70268074848603   -1.08647959720989
O           0.72180369253399   -2.46733723833992   -1.39918106921760
O           0.79322079273265   -0.81825159356937   -3.02617100554574
H           1.01608476823141   -1.70718762662945   -3.31522169029621
H           0.36275265727298   -2.78832904195580   -0.52887733398968
O          -0.15536026048038   -0.74251572452359    2.57334522929533
H           0.07536540688220   -0.94253721269671    3.48166153529440
O          -0.43152797385355    2.70634050504023    0.52729662163235
H          -0.80559793310329    3.51024393785155    0.89060445420622
O          -0.55916236939594   -2.82082064806939    0.85941856853713
H          -1.37225509847160   -2.50562884243326    0.45459465940696
H          -0.31196565244039   -2.12635857963943    1.50459348921924
O          -1.98457234308484    0.62687423299619    0.97838992861599
H          -1.72505134076629    0.16481375143317    0.16213512865422
H          -1.52458546422563    0.15093267996069    1.68778036228096
H          -1.09119076184966    1.98467608751654    0.70718000410243
O           1.49111401850884    1.05149837505318    1.63343517053135
H           1.72728783678758    0.56316461636101    0.82598016632490
H           0.92324709085803    1.77564984199810    1.31670135193766
H           0.51872873354420   -0.07516680807193    2.25434105404625
N           0.29726752086083    1.34625643952788   -2.03889380321203
H          -0.46162508971156    1.48205281359357   -2.69259672831018
H           1.15584492082775    1.68537731275275   -2.45020952912221
H           0.10455224787365    1.88226353428097   -1.19571501494308
