    26
        -50.45825256  Gyration_radius:  2.58529894012 Dipole_moment: 3.134
 S           0.04078400382037   -2.29916880571717    0.03825135772182
O           0.68625953012995   -1.36453908894424   -0.87067919363974
O          -1.36162926346820   -2.50015848927644   -0.30544633662613
O           0.23067516463162   -1.97934284888420    1.43583938926632
O           0.77358633258090   -3.68807315037771   -0.20364397211336
H           0.50296962250617   -4.22456389785796    0.53567912539775
H          -0.33540433417552   -0.51575847217445    1.77704797992576
O           0.14345284255379    2.88822729596404   -0.92130935628004
H           0.22768432743864    3.83960693248989   -0.85005498641003
O          -0.69735260317160    0.38069153987683    1.99423261962126
H          -0.96892304276640    0.33553967540944    2.91251403760125
O           2.89730882924390   -0.23056063094252    0.09428285967599
H           2.10238175930367   -0.71850521374911   -0.20131948497331
H           3.43673931429264   -0.10336284750814   -0.68793446224355
O           1.48452257432751    1.86410547735290    1.08438662148806
H           2.10607628846740    1.16765992358256    0.79379751869004
H           0.73223360719023    2.51259930916507   -0.21010902060252
H           0.77046021322679    1.38751657623677    1.53733200448342
O          -2.01309003008553    1.61601704947314   -0.06341586017724
H          -1.86780114484987    0.49324517686730   -1.05173362159520
H          -1.66031724957421    1.22333104783563    0.75711327377476
H          -1.29226321225391    2.20807909855385   -0.39137115587154
N          -1.58617792219279   -0.34691908782633   -1.68762443765297
H          -0.55257240389249   -0.39057627393083   -1.72622619485900
H          -2.00846544218088   -0.29953970702396   -2.60816332004129
H          -1.79113775131708   -1.25555057838921   -1.18144538468565
