    26
        -50.45825247  Gyration_radius:  2.58522400476 Dipole_moment: 3.129
 S          -0.01860573053047    1.20383987716405    1.95922590541434
O          -1.46764610936790    1.27094335894204    2.10431521495539
O           0.40423218730452    1.59285404160662    0.62276657169661
O           0.52652192995292   -0.06166630777191    2.39855794417236
O           0.58881027316288    2.30885666381458    2.92594636521017
H           0.50014368963490    1.92990895625314    3.79553502594726
H           0.10797102107240   -1.24897874242006    1.40167947544281
O          -0.00908905085427   -0.75721248080319   -2.93896139017826
H           0.11888905054557   -1.30332626710478   -3.71527901986336
O          -0.16084140213623   -1.98648757258051    0.79697542928058
H          -0.19248836528308   -2.77270578631926    1.34461646382227
O           2.81991835283246    0.70829149203544   -0.07529233297503
H           3.14828469232485    1.40078597572847   -0.65119086824765
H           1.96196654960632    1.02749664643352    0.27030681400394
O          -1.91643752494454   -1.26996434796593   -1.17696569218286
H          -2.05770697565157    0.16713554587511   -0.76027388813774
H          -1.28448508540244   -1.15403214033544   -1.92853360947949
H          -1.37986300052504   -1.64830542263450   -0.45525951244880
O           1.76390186895523   -1.53737260474536   -1.17326252129047
H           2.27149482842568   -0.78740278421184   -0.80481742569165
H           1.17327424397234   -1.81528603459044   -0.45481726508055
H           0.72867669065961   -1.00118291828759   -2.31461970668077
N          -1.96990423998661    1.19742660667798   -0.41348500289028
H          -2.06743810362089    1.22300437329666    0.64183042649766
H          -2.60861621640676    1.82559326591834   -0.88825765622642
H          -0.98096358374288    1.48778659596218   -0.51073973513184
