    26
        -50.45825258  Gyration_radius:  2.58531430627 Dipole_moment: 3.133
 S           1.37521569248126   -1.47027206349541   -1.11170069827955
O           0.47764125797118   -1.73021485541059   -2.23065258443654
O           0.69232367208711   -1.60691089477384    0.16547596451555
O           2.09891347126367   -0.22652330151991   -1.25635055969760
O           2.46738397224768   -2.62427104596131   -1.12501272580253
H           3.04191020278534   -2.39122940255025   -1.84837597880357
H           1.11722820111920    1.03515957219829   -1.10336151860676
O           0.51169629590719    1.81547729567617   -1.02450092218354
H           0.90406992591335    2.50410428130849   -1.56382703549490
O          -2.11293667488013    1.17159295202104    1.83739310920229
H          -2.57286555880582    1.83659679922341    2.35072054386115
O           1.87638638626298   -0.34807854623552    2.19485696419339
H           1.67079928948249   -0.90509512950935    2.94751356592856
H           1.52633046155037   -0.81437536617064    1.40906382824692
O           0.40620281721345    1.89146865722152    1.76324466903652
H           0.52418220451814    1.98909113264001    0.80471852156039
H          -1.14638037850043    1.40803709025652    1.89625222422312
H           1.00543920611636    1.16171237630053    2.01670560198447
O          -2.14445594263403    1.19028585348108   -0.80913513029497
H          -1.97446313181734   -0.29868888763889   -0.92266363175897
H          -2.25395701364515    1.26158360139692    0.17096095757619
H          -1.24338071829858    1.52062236771128   -0.98469482960498
N          -1.68726374715103   -1.35060787498326   -0.90170831279806
H          -2.48617944526365   -1.97460644380324   -0.91924308629709
H          -1.08143370848804   -1.50364866203940   -0.07632466262055
H          -0.99240671741211   -1.54120951532848   -1.67935426356747
