    26
        -50.45825237  Gyration_radius:  2.58522752619 Dipole_moment: 3.126
 S          -0.57908091956275   -1.31263460535961   -1.79726550839876
O          -0.02474707946032    0.03176201433883   -1.75665328019804
O          -2.01669626421483   -1.30764942122927   -1.55572976371463
O           0.12275272035582   -2.25878124406651   -0.95825176563031
O          -0.36872006005113   -1.80451602674607   -3.29334779127959
H          -0.52238614258052   -2.74383455385733   -3.25213864294884
H           0.11622317522446   -1.78599171616856    0.57637276996838
O           0.10121649558467   -1.50487820061222    1.52641250685580
H           0.13433891371943   -2.31528332708200    2.03747951594390
O           0.62716996685978    2.38771205022351    1.76535597446144
H           0.98679779884775    2.87105758678371    2.50989016621514
O           2.59913297025525    0.13427575086574   -1.29894557898697
H           1.64998978855822    0.01060790049258   -1.50211397003938
H           2.87621281795448    0.91091054314108   -1.78792938136691
O           2.20066337689947    0.32763853032554    1.37826095590889
H           1.56491809726543   -0.39448226585399    1.50717889838757
H           2.48316921314999    0.24968023275290    0.44553111615508
H           1.28440388724196    1.66339859454358    1.57284103462851
O          -1.40856844310481    0.71904882031985    2.04271306255806
H          -0.93569734098959   -0.13235315473677    1.98419287254805
H          -0.69563198957648    1.40389633621951    2.06120735242261
H          -1.89552215486543    0.91939552230884    0.63489352625655
N          -2.06978391873746    1.00443662304550   -0.43830963174114
H          -2.34441201284981    0.05692700127065   -0.82640273553073
H          -1.15459774138976    1.13255713534012   -0.90506367289672
H          -2.73114515459072    1.73709987373811   -0.67017801955308
