    26
        -50.45825231  Gyration_radius:  2.58530157117 Dipole_moment: 3.121
 S          -1.37508986214265   -1.56866477913927   -0.96817739305892
O           0.06469796556298   -1.58284150337042   -0.76063727097968
O          -1.74091291134551   -0.77724199075582   -2.13647892046446
O          -2.13087721243372   -1.20393350022912    0.20966570128344
O          -1.76314192082277   -3.07419655912782   -1.29627393833181
H          -2.71124758245761   -3.09457928664673   -1.20458702932726
H          -1.71087493928804    0.25304498593758    0.73873613138885
O           2.42832810725046    1.65576697426836    0.75769291741890
H           2.97036815880317    2.25020044700222    1.27741741451252
O          -1.46462784558539    1.15765413429195    1.05933761359119
H          -2.25131712467098    1.50634651767233    1.48195398275480
O           0.81919207008523   -2.19701063281644    1.72079500675533
H           1.65102902858832   -2.65508639297982    1.58955775031840
H           0.46355966963789   -2.01965574767174    0.82657409666678
O           0.84480779206838    0.41913254210767    2.44112514143985
H           0.86223895809667   -0.55075308641600    2.31913956191380
H           1.89955852974244    1.12819950310739    1.41763418688379
H          -0.01797709908636    0.69815939761412    2.09477050045222
O           0.29048537365609    2.50738884774192   -0.55030585725630
H          -0.41109178438616    2.15903548903064    0.03131442857150
H           1.13354270466066    2.32684950915349   -0.06629395343530
H           0.39249713833514    1.44670469407654   -1.61057263932625
N           0.45519421677243    0.55143706484252   -2.23008255476481
H          -0.52176381121900    0.18833956079881   -2.42386659136416
H           0.82253373151203   -0.22049532028957   -1.64618553570897
H           1.00088864872060    0.69619914183585   -3.07225276988209
