    26
        -50.45825262  Gyration_radius:  2.58533111218 Dipole_moment: 3.142
 S          -1.02158779460945   -2.03324903557374   -0.33370531337875
O           0.24144212475398   -1.52291132857600   -0.84412254581499
O          -2.15352684767999   -1.53035648873647   -1.10249343245340
O          -1.19166909764820   -1.85080561112867    1.09085697237868
O          -0.96529495658441   -3.60232090350315   -0.57765847078957
H          -1.68319623547051   -3.94417431759498   -0.05285230116944
H          -1.11048381794444   -0.29700558889886    1.48823668816732
O           1.73907842915690    2.46416462172183   -0.34357478965691
H           2.21477594523279    3.25665144618580   -0.09264785707213
O          -1.07630491491592    0.66208669923852    1.73478322756716
H          -1.63136351245421    0.75033572569721    2.51140874669445
O           2.25417602152488   -1.60076585395712    0.90176183905649
H           1.47681475370719   -1.64337482799581    0.30905721608818
H           3.02083170465663   -1.74567965680221    0.34473999268571
O           1.70338698569194    0.91120221198291    1.76756896882587
H           1.81413796460835    1.84777998862862    0.43617409150988
H           0.74532691873307    0.83674862316733    1.90451344519608
H           1.99859756294269    0.00239356988060    1.56067097601513
O          -0.90610808465169    2.38716958683065   -0.38343985748347
H           0.06765379457813    2.55893630761385   -0.38128426384720
H          -0.96154184570663    1.33770937563564   -1.45750889680907
H          -1.07057978265455    1.86980489765400    0.42722185461285
N          -0.89557722440222    0.46821741590242   -2.11272022480183
H          -0.04977676910247   -0.06893916668755   -1.85229644939816
H          -0.91165539274667    0.71662819382703   -3.09555581931460
H          -1.64755594926505   -0.23024589462492   -1.84713378695688
