    26
        -50.45882204  Gyration_radius:  2.4949159581 Dipole_moment: 4.352
 S           0.11586994847644   -1.36338771999075    1.63611907825009
O           0.74424153675022   -0.04952193433971    1.60586569769733
O           0.36484725847315   -2.12503179757477    0.42843765177511
O          -1.28566840661020   -1.27270818422015    1.99391896493367
O           0.82464550366022   -2.16466282413069    2.80241318384932
H           0.53732454030916   -1.66645480008058    3.55919691610945
H          -2.06650612228081   -0.23849294387324    1.05992632745899
O          -2.55217781475661    0.32672623147923    0.40351654302242
H          -3.46404663009233    0.03221685578368    0.44118119127260
O           1.40633039649513    0.33020285445814   -2.12505533694513
H           1.99897924408855   -0.38923922805335   -1.80467525668211
O           2.61883655195934   -1.67795921506444   -0.87564682501526
H           1.83979771869583   -1.85826340638084   -0.30489353343375
H           2.83207977749691   -2.51056275698603   -1.29985385224686
O          -0.91187397924731   -0.79439484249134   -1.52206235752093
H          -0.51247406325862   -1.42464458986368   -0.89430601202477
H          -1.58161430530026   -0.31932970029637   -1.00468544959916
H           0.49964467352388   -0.06219915264134   -2.08891849159046
O           1.24876200447561    1.74588732748011   -0.09505298390576
H           1.13235947944430    1.03469920199514    0.61981182322333
H           1.38923670310756    1.19234726392009   -1.00911837628130
H           0.29940613672821    2.19912957081920   -0.18052928753215
N          -1.11021885076807    2.70346311695354   -0.31815959646545
H          -1.35600848502842    2.91129046913898   -1.27765789337000
H          -1.31849692136567    3.51293526266537    0.25131117183011
H          -1.69327589496962    1.92795496129594   -0.00108328678787
