    26
        -50.45882277  Gyration_radius:  2.4946976864 Dipole_moment: 4.344
 S           0.23941253006266   -0.79596783824668   -1.96491952565675
O           1.30267635013148   -0.18384262838732   -1.17952432700401
O          -0.97189092042314   -0.00023200410808   -1.97438422834195
O           0.02965515138723   -2.17904233281985   -1.58624240444031
O           0.75228870537872   -0.81349641564313   -3.46210123752244
H           1.48512844199913   -1.41478143537828   -3.39185677534662
H          -0.19565363185269   -2.32896434870054   -0.01185575713833
O          -0.68930632181478    2.30767056764175    0.89742392661834
H          -0.73140662666486    2.62033820626897   -0.03637135144792
O          -0.43801217459826   -2.38681999434206    0.94938876103219
H          -0.93692692419104   -3.20117428786009    1.03653817917884
O          -0.73092591252272    2.62023394559660   -1.74160423502463
H          -1.47946844228682    2.98359127151545   -2.21727977093741
H          -0.75152865062821    1.65187658908561   -1.90647161847856
O           1.52837410233918    1.19772464133630    0.92064325553414
H           1.42208081070889    0.44626821710108    1.65435927707005
H           1.49682800364415    0.70105524940757    0.03591447193078
H           0.61032544698469    1.76136266741706    0.94847286392117
O          -1.85651697711893   -0.04360256681731    0.55961836326709
H          -1.70790037884151   -0.04815038172615   -0.40400427940624
H          -1.44415347488133   -0.86241486270776    0.87811255937271
H          -1.24855441349794    1.49270440452801    0.91023138207333
N           1.14611429067215   -0.67070801102392    2.62181758859770
H           1.97612023890404   -1.10156033396914    3.00711228832263
H           0.64575428200884   -1.37002568613612    2.07183507047230
H           0.54748652511867   -0.38204265201476    3.38514751335570
