    26
        -50.45996584  Gyration_radius:  2.46190180994 Dipole_moment: 6.413
 S          -1.13637586821246    1.05549365637300   -1.39409791471436
O          -0.08021251257091    0.18424412547451   -1.90774340345378
O          -0.62563359183847    2.05994851540922   -0.48797039524216
O          -2.24512309638632    0.28743411554169   -0.86267175957007
O          -1.70060920500542    1.83343239603038   -2.64997665894569
H          -2.20836618717970    1.15223954172246   -3.07615856842694
H          -2.13351495734879   -0.32239783346488    0.61580897167014
O          -2.02591023991768   -0.66736635517617    1.53946572774044
H          -2.84454429633649   -0.45665002983205    1.99147482903547
O           2.46026807955470    0.38802562322763    0.72316990956738
H           2.47578135232191    1.10439354134300    0.04054530122714
O           1.91918010899728    2.04262432936503   -1.27707752903391
H           1.01840336196579    2.25906232193588   -0.96822822312332
H           1.77784835083967    1.45292332651415   -2.02371249664110
O           1.39702061639481   -1.40568645897969   -0.60157198098171
H           1.95134535237701   -0.67192172553997   -0.00801657803085
H           0.80143362256638   -1.94983102279663    0.08157012841074
H           0.77948276947370   -0.83542471315178   -1.17009784451412
O           0.15739220792354    1.00177649961236    1.85783078627579
H          -0.13605951330446    1.56335914467855    1.11739231678540
H          -0.55273651973391    0.34956857006862    1.96446331042843
H           1.70699313104992    0.62878263741058    1.31813177996943
N          -0.02996050571869   -2.65738804829200    1.10768524687232
H          -0.39586285906676   -3.54505576159379    0.78920292664508
H          -0.81644611815635   -2.04097323602933    1.31581801248128
H           0.48620652733383   -2.81061313985775    1.96476409559255
