    26
        -50.45996620  Gyration_radius:  2.4616946084 Dipole_moment: 6.413
 S          -0.79714694881812   -1.76854899109493    0.76207433441722
O          -0.51893356284559   -0.69394677719363    1.71400138136199
O           0.38289399236201   -2.17102629289999    0.02972693737681
O          -1.93530387136510   -1.45086037335019   -0.07790482949042
O          -1.22687121937540   -3.01514687906348    1.63501527011332
H          -2.10304481077941   -2.76070247301057    1.90171956326615
H          -1.72374610240459   -0.49294004025778   -1.34594259528942
O           2.40927420387437    0.93116654076084    0.22520372039229
H           2.58709548408669    0.14303275603748    0.79670295894779
O          -1.54310674008492    0.09188931266022   -2.12642598484095
H          -1.97432730518147   -0.33014039776270   -2.87130854568017
O           2.22723705086124   -1.25246580148729    1.71854672477085
H           1.68709572553466   -1.75051915000443    1.07511914950117
H           1.60439098782071   -1.00287866815071    2.40765354595978
O           0.26347191055942    1.66129303136907    1.20737263565575
H           1.25333915523826    1.42812096928799    0.80216546548930
H          -0.30272799269314    2.04818965080968    0.40293037980983
H          -0.11665751070160    0.75173666737513    1.44845151405696
O           1.16707557931102   -0.30820003585465   -1.74607642930998
H           2.08611006662513    0.55003543993067   -0.62917959743300
H           0.99680193029729   -1.11300184832456   -1.22366345186272
H           0.29057938578768   -0.02819025354214   -2.05353959873375
N          -1.04773752511831    2.56248562980523   -0.79105254181221
H          -1.31522009805559    1.74341459701185   -1.33819039091054
H          -0.46379991921488    3.15222320098135   -1.37048640920707
H          -1.88674185573664    3.07498020596538   -0.55291322655012
