    26
        -50.45882297  Gyration_radius:  2.49468334679 Dipole_moment: 4.340
 S           0.88693634753401   -1.00385834670107    1.66035120174783
O          -0.45617563654146   -1.52814317076586    1.51342414020838
O           0.95332062137715    0.43271449143611    1.42784993117692
O           1.88197164866464   -1.71353356217432    0.88152556863166
O           1.26798702891881   -1.22162192116153    3.18087342655458
H           2.17478957428726   -0.93676025240254    3.17936332682950
H           1.79715281805543   -1.33615102344971   -0.66824367521030
O           1.65862533739906   -1.16802068775159   -1.63714383783997
H           2.03926079478792   -1.92694314359838   -2.08305920983031
O          -2.32939439912649    1.00189662192690   -0.41768868504354
H          -2.56373963930036    0.75704935396621    0.50772156933258
O          -2.47661709921147    0.08032089541576    2.07127085279388
H          -3.17736681634641   -0.49517475470318    2.38173350854857
H          -1.68717007741893   -0.49337291240942    1.95792724963936
O          -1.05269629959916   -1.21839142259176   -1.08517373302599
H          -0.91549579329408   -1.49048421783311   -0.15895848111377
H          -1.98153189083581    0.16585132963433   -0.81415245808943
H          -0.16243368192791   -1.19231241972207   -1.47064253406210
O          -0.15477048318653    2.14098012938839   -0.06337982014317
H           0.36419004879876    1.97101654505622   -0.96687235444458
H          -1.14165735244364    1.73736771788979   -0.21638837164084
H           0.27825506545085    1.51253717772801    0.60614891048331
N           1.07290190069887    1.57964847676565   -2.23317338641497
H           1.38844298146832    0.62318163802562   -2.06707532156308
H           1.88002856724087    2.14881871430565   -2.45135087198321
H           0.45518643455983    1.57338471373499   -3.03488696553265
