    26
        -50.45882289  Gyration_radius:  2.49473730493 Dipole_moment: 4.346
 S           1.48667246770318   -1.33033080423653    0.75559502900453
O           1.17160843186881   -0.02678718615528    1.32448539417718
O           1.65157031416890   -1.28237600413983   -0.68350819950855
O           0.55445532823908   -2.34453668026233    1.20576696157102
O           2.90286405638988   -1.73322244052515    1.33600362590503
H           2.69655533032065   -1.82711088563823    2.25908167437263
H          -0.96044418733248   -1.90752055999467    0.94859465703460
O           0.02962309830422    1.84810555340886   -1.78620487789963
H           0.99481319511862    1.68026311042961   -1.89474181875951
O          -1.88603856572974   -1.66346665752442    0.68442983551689
H          -2.36283229525902   -2.49403773715983    0.63458785974595
O           2.53660973208495    0.96646719025832   -1.75038974658653
H           2.29011815938401    0.13431913664968   -1.28988459713357
H           3.01311223417371    0.69966977405895   -2.53803416725187
O          -0.77730766571052   -0.66900918625148   -1.64790176580250
H          -1.34106172338066   -0.97924319916708   -0.92141788167135
H          -0.38844824562349    0.95782095416870   -1.88435738121316
H           0.11222367258940   -1.00673143534346   -1.43485377874690
O          -0.13855896229910    2.03235198712872    0.68141625739223
H          -1.12078517328502    1.70556821098765    0.88883785228968
H           0.45631919473779    1.26075363208465    0.96658670358634
H          -0.06064035228060    2.05271645834596   -0.39291873216077
N          -2.48536222697330    1.11378767643417    1.10469348970084
H          -3.14055043314000    1.37893259504925    0.38030408619421
H          -2.89399338361773    1.32872397286714    2.00459185464045
H          -2.34052198045963    0.10489254451229    1.04923766563307
