    26
        -50.45882298  Gyration_radius:  2.49501090345 Dipole_moment: 4.348
 S          -1.63641545371858    1.16257768296578    0.72409128499400
O          -1.30382626242852    0.98967772492653   -0.68362366727133
O          -0.48119783774410    1.50564905965909    1.52926821483794
O          -2.39166762786636    0.03497410244789    1.23267719875338
O          -2.59852940060032    2.41702509581164    0.79797614661336
H          -3.35440459683402    2.08840120382792    0.32463222803579
H          -1.65394117733115   -1.35230385963642    0.94625319621129
O          -1.12975306200969   -2.19043721189054    0.85137175647242
H          -1.46719966307802   -2.77851634000554    1.52957312192040
O           2.46993712200184    0.52968456404227   -0.46587148064264
H           2.28335957535267    1.46371377284915   -0.21282127491891
O           1.47747085152968    2.84949081504694    0.37102385468231
H           0.68467982384614    2.42423875043848    0.76548003176187
H           1.87211225074318    3.37069068759854    1.07197149995657
O           0.61646023416317    0.09366879854680   -2.05522924609771
H           1.47883466763614    0.30401088576847   -1.44489567806107
H           0.45089758049587   -0.94518351041630   -1.96340738398665
H          -0.15846052487436    0.52473675002317   -1.56114405463449
O           1.09751756703404   -0.66394406210662    1.45645038926310
H           0.44446578958226   -1.35352639591391    1.25665480726760
H           2.12700095646893   -0.00460923155373    0.29193945013475
H           0.56832611814013    0.13026730928213    1.65632107963445
N           0.20522841778300   -2.40059735488148   -1.68226847868348
H           1.06305017765522   -2.91013498778621   -1.51234926608837
H          -0.31895340803251   -2.88105598388899   -2.40152893189491
H          -0.34499210792328   -2.40849827514009   -0.82254478825831
