    26
        -50.45038887  Gyration_radius:  2.64360173738 Dipole_moment: 6.839
 S          -0.69521945819229    1.47177885884504   -0.02431725307696
O          -1.51561527957823    0.43650494567371   -0.81144908219454
O           0.63886716337998    1.55194535934111   -0.52216370906023
O          -0.79688193363457    1.15049813654884    1.38645857484276
O          -1.45113967693970    2.77312097474979   -0.30731309461754
H          -2.35983320891320    2.61999167969177    0.13805901025196
H           0.23824780550781   -0.08690187198230    1.76269363433486
O           1.40609225111172   -2.05642680458787   -2.05336344890111
H           1.15605841753641   -2.14907313174020   -2.97298851881378
O           0.72636140493248   -0.93165935256546    1.89011264937254
H           0.71785502419746   -1.11245564707704    2.83198491061375
O           3.14640248144058   -1.32175256252938    0.52512058630657
H           2.91458758073287   -2.09288903476277    0.00035792598243
H           2.36023667254183   -1.10781110699447    1.05096858409003
O           2.68759399676203    0.19816102827330   -1.70370947304010
H           1.90824357119458   -1.19395705072363   -1.98946930964648
H           2.01231134248489    0.82033723765996   -1.39117451223727
H           3.13733259224001   -0.11280026036417   -0.89686339743785
O          -0.57474177715348   -1.82784944700582   -0.34101345216460
H          -0.11453538845748   -1.69899801401058    0.50753930499530
H          -1.15799612332190   -0.54125084340038   -0.64914206670069
H           0.14247102477748   -1.97600754816968   -1.01381555001648
N          -3.50346864042664    1.95611854726260    0.99122878291478
H          -2.85499497648585    1.46894619568387    1.60212279179423
H          -4.00920791662280    1.27229449669082    0.44408791281681
H          -4.15902693915051    2.49013523549145    1.54604818962898
