    26
        -50.43882578  Gyration_radius:  2.42432482877 Dipole_moment: 5.179
 S           0.39315003682285   -1.67232708880964    1.16768432634660
O          -0.96681518838649   -1.22913267785554    0.98551704513473
O           1.35769139264030   -0.56945379507032    1.13295713093743
O           0.77767426199415   -2.71572917986039    0.22668350969810
O           0.49335781343938   -2.29247478959226    2.61083226299660
H           1.41202655506827   -2.53261563604112    2.67906634598004
H           0.60663072619940   -2.15733384496190   -1.19963850225540
O          -1.18470940179551    1.66319067252187   -1.19824667159809
H          -1.40340999059640    2.21789959416642   -1.94761834264147
O           0.54145361039200   -1.66417691226556   -2.07490355645786
H           1.15753012048675   -2.09853553837314   -2.66849734795998
O          -1.48681560861200    1.37782636595982    1.69548738960586
H          -1.71477948609034    1.68540011165831    0.81199019266843
H          -1.34695826643747    0.42261624474310    1.60739494214079
O           1.14017820103769    0.60995730052358   -1.03852986310900
H           1.29513400708815    0.25583270634725   -0.06010975888281
H           0.91353062201374   -0.22356247018550   -1.57200656546484
H           0.30725282759099    1.20514727455791   -0.99414915367912
O          -2.05300356634684   -0.78403169243103   -1.41941276858744
H          -1.63810914165578    0.78277633793364   -1.32634499363830
H          -1.40129405490767   -1.26675523611389   -1.94201985775524
H          -1.86755457205190   -1.03394195861348   -0.49288788369853
N           1.16888755129225    2.47092251537989    0.96971654166076
H           1.34929379113648    3.43359671289023    1.22768515388845
H           1.87142190806462    1.90184612392002    1.42760219409782
H           0.27823584161500    2.21305883957457    1.39174823057989
