    26
        -50.43882601  Gyration_radius:  2.42423917711 Dipole_moment: 5.176
 S          -0.94015132120534   -1.72831308439459    0.66544046204445
O           0.49960000724639   -1.64919787839457    0.67078676877346
O          -1.54686389612199   -0.94153319550619   -0.41190538349009
O          -1.52946793084688   -1.37390810442270    1.94961829311789
O          -1.32489266152689   -3.22723910167972    0.37840278321370
H          -2.27621967644568   -3.20426250588252    0.35036988482375
H          -1.09607514771868    0.06470346210121    2.29293491961456
O           1.69755787246025    1.57813203883064   -0.48412577496872
H           2.12275956558634    2.43617078869817   -0.49307113241516
O          -0.82561239569833    1.03123380616073    2.37195573230498
H          -1.49164354049298    1.44691035017640    2.92346774922438
O           1.67727595155828   -1.05907342630438   -1.74484568612372
H           1.28074823798151   -1.43067667926022   -0.94203646896508
H           2.05160504509289   -0.21324011127947   -1.47721956568100
O           1.85223088804765    0.35744862574098    1.81311953075847
H           1.89191865079922    1.14926642207674    0.39647169757756
H           1.13397800211164    0.69689602141153    2.36061383207774
H           1.53142426686467   -0.50499101050803    1.48354277462994
O          -0.83529998063061    1.42239659225921   -0.16781532074577
H          -1.16022972952424    0.45793816070890   -0.43415523385388
H          -0.81276871970260    1.40629018909085    0.84714600382975
H           0.12585954631314    1.50157207657788   -0.51400514969698
N          -0.49545452104154    0.66862438485812   -2.77868400310407
H          -1.36382018089566    0.15255748365367   -2.69638162619258
H           0.25006840823184   -0.00659173934902   -2.61682330632458
H          -0.41652674044633    0.96888641463234   -3.74280178042588
