    26
        -50.43882612  Gyration_radius:  2.42424229255 Dipole_moment: 5.172
 S          -0.86552352357797   -1.25888681529615   -1.40786457598503
O           0.42139890113838   -0.66555283579674   -1.67423992404065
O          -1.71877652652121   -0.40999679312493   -0.57156557436232
O          -0.76344319716867   -2.59624327472670   -0.83963079360199
O          -1.61064791927226   -1.39794765649853   -2.78721458814552
H          -2.46095273828458   -1.74673179247103   -2.53886881461200
H           0.03734160202922   -2.49789892257359    0.47366177837792
O           1.58340495074159    1.37863993540019    1.09328015062954
H           2.11568681393912    1.69736230592261    1.82279600856462
O           0.49130980241180   -2.30371068015984    1.35096849582289
H           0.22012762838536   -3.00363931788939    1.94856794390140
O           0.52581089782655    2.08072822564680   -1.54035459133901
H           0.45371449284991    1.13783044605463   -1.75368872337913
H           1.13081999448667    2.12812219206474   -0.79278320754498
O           2.48451489872781   -0.82017909564290    0.02325121382425
H           2.05517100977802    0.59699646167697    0.68885168257428
H           2.15145449799060   -1.55017624967589    0.55901469162929
H           1.89739078091459   -0.79291642217616   -0.75769515780653
O          -0.54293631549661    0.03890985735510    1.56614064935450
H          -0.08680460655418   -0.86701312874768    1.61163637830257
H           0.16976232329068    0.75414855659571    1.39148478603398
H          -1.12526258177146   -0.00861316198358    0.69128857220769
N          -1.51152057475432    2.40467546530336    0.58544722433024
H          -2.33947886056131    1.89582805448698    0.29798817624975
H          -0.91141302498994    2.45410145461149   -0.23638370233898
H          -1.80114872555532    3.35216319163615    0.79591188135142
