    26
        -50.47243376  Gyration_radius:  2.45595664516 Dipole_moment: 4.358
 S          -0.12538896870490    1.31642094244379   -0.38435613859776
O           1.23492817670263    0.84691122827324   -0.21947820571353
O          -0.89189138535084    1.24096474503579    0.84932748011878
O          -0.79997190147720    0.58185173869258   -1.46708691441643
O          -0.09887451162134    2.82274949046071   -0.78598382512811
H           0.22672359750385    2.81414703079450   -1.70566180665379
H           0.20083516528115   -0.73127564308706   -1.77151360061513
O          -0.07002131622114    0.73694269929470    3.33856474659744
H          -0.36708983222862    1.07124244492371    2.46883914224547
O           0.89942186633279   -1.42189881963100   -1.76028546646055
H           1.69639676301189   -0.92225818394168   -1.55081284059539
O           0.30204274153537    2.10298518245654   -3.30278905344419
H          -0.30923477721008    2.43042252166000   -3.96617681851624
H          -0.15326116069535    1.37512386828896   -2.83347466837565
O           1.68022524025271   -0.71159842328620    1.88772506432059
H           1.68981817787837   -0.06695024866965    1.14707231068574
H           1.19016273029477   -0.25300128098723    2.59791738578193
H           0.79637069462316   -1.77618331755862    1.24183505539027
O          -2.14235532221847   -1.02434199682865    0.45913624991469
H          -0.86655255113967    0.51180627269930    3.82175533405751
H          -1.78402105924541   -0.14383359917897    0.71580177025216
H          -2.32042337027724   -0.92635752253059   -0.48115109851582
N           0.15562313445385   -2.36750480348512    0.60011003703791
H          -0.81922302419055   -1.96903582025150    0.64821782473681
H           0.17739922760655   -3.35257843776398    0.83684036894282
H           0.49836165509800   -2.18475008782291   -0.38437235305643
