    26
        -50.47318303  Gyration_radius:  2.44976010004 Dipole_moment: 4.446
 S           1.20058064562257    0.71096158537557   -0.06376293879138
O           1.17835623622726    0.17303227055116    1.27565572913594
O           0.01928866069220    1.51421499624195   -0.36272895535532
O           1.35003267371044   -0.35074049717966   -1.07153704533342
O           2.45044918857243    1.63610433847791   -0.17180870821931
H           2.51314593597679    1.82553566211653   -1.12747064631213
H           1.21913411830042   -1.78394376351944   -0.20738729498563
O           1.02390481219174   -2.45883176672811    0.47956714688408
H           1.37995145351432   -2.06090279515431    1.28169332164304
O          -1.98678990893873    2.17457716525959    1.26523522207067
H          -1.19825963772916    2.06965032144568    0.69514491243281
O           2.36302207259211    1.32717251136210   -2.80356050411074
H           3.16329876798187    0.98406240708265   -3.20731372207698
H           1.92014661710245    0.56943282994978   -2.36919674718861
O          -1.16722117155294   -0.04704188131848    2.53487081355241
H          -1.51271515835248   -1.12321751940516    1.50143456040038
H          -0.23192961631373    0.08537064624920    2.27610602322890
H          -1.60484940311381    0.78839717544252    2.27393924386489
O          -1.47295875488751   -0.29349788953659   -1.51183182048423
H          -0.82682098936178   -0.69635516793427   -2.09815444649633
H          -2.72336297047117    2.32175691856745    0.66973358449512
H          -0.99370169194353    0.47919468874003   -1.12766352644652
N          -1.54435549524557   -1.81818920967880    0.67348358991363
H          -2.26659568369675   -2.51965857608645    0.78931779380100
H          -0.57771878293951   -2.24740934467769    0.61779500148111
H          -1.67403193793505   -1.25967511563949   -0.21156056710897
