    26
        -50.45038888  Gyration_radius:  2.64391779236 Dipole_moment: 6.845
 S          -0.61635097119902   -0.21138497377225   -1.49100769484118
O           0.57729902445271    0.56631367299677   -1.55799654954876
O          -1.63720682027489    0.42773125983891   -0.53496687654864
O          -0.41901978253883   -1.58983671664556   -1.08516722355105
O          -1.35511520747865   -0.17479176736764   -2.83181366424604
H          -2.14892218470457   -0.80339865110763   -2.68122296484765
H           0.61626479502356   -1.65774282509527    0.20641634336659
O           0.82432566151150    2.42493071547004    1.96717640650184
H           0.37413908090624    3.26959443728498    1.99351018479093
O           1.08145231532470   -1.62690581997575    1.07285098203847
H           1.27071438435656   -2.53581292106999    1.31367043730830
O           3.12091935132418    0.26235348204580    1.45449156289750
H           2.74329309609643    0.76346567692508    2.18257932322185
H           2.48115365594724   -0.43653504775873    1.24838298672639
O           2.25283614781235    2.24656210644676   -0.21809144122765
H           1.69165954592466    1.75777774181492   -0.84012097414564
H           1.36701765745220    2.42749512591550    1.12719493207298
H           2.85445238945560    1.57827993769198    0.15795436274869
O          -0.71817176450644    0.30464938894200    1.78330903242132
H          -0.07675970257977   -0.42571278870267    1.72328204915305
H          -0.17443703608212    1.12738037066280    1.91146384109326
H          -1.29696002114335    0.40367085025112    0.46182474094063
N          -3.10497997779463   -1.85376695955939   -2.00490858765794
H          -2.36128149625363   -2.27660969937791   -1.45791847923870
H          -3.59426494761846   -2.56927265791036   -2.52583208882759
H          -3.75205718356048   -1.39843392824477   -1.37506066062118
