    26
        -50.45038887  Gyration_radius:  2.64375287509 Dipole_moment: 6.843
 S           0.87691577379031    0.79893682393772    1.11431166866016
O           0.51196175726578   -0.48860416824987    1.60736426981775
O          -0.36542821027371    1.59623359525149    0.68347595399903
O           1.80894357578712    0.77988873361410    0.00315216248835
O           1.44581972193718    1.66300049626203    2.24329241211738
H           1.71936291178508    2.52572766755021    1.76523884250516
H           1.34980693332694   -0.36441968902236   -1.10345111333555
O          -2.89529143935652   -1.40536024321888   -0.26186329199710
H          -3.68085547068968   -1.09930258015795    0.19210426518723
O           0.93573598985350   -0.91912011040166   -1.80267844184017
H           1.57725029508692   -0.98762653037031   -2.51234962678786
O          -0.41661058841738   -3.26114557229076   -1.05537749270490
H          -1.29779374543176   -3.04875032328069   -1.37511868154958
H           0.14127824760316   -2.49999488409328   -1.27836665325719
O          -1.26989311156999   -2.54396170461667    1.44383390214444
H          -2.32948695374019   -1.84823371980421    0.43372222342975
H          -0.81970527315798   -3.06880109475936    0.75693017994253
H          -0.63746565663950   -1.84867122074148    1.68344834078833
O          -1.36892817751657    0.46422088158459   -1.30288668354076
H          -0.62018769327161   -0.04281302664616   -1.66440618617915
H          -2.00296173090282   -0.21374950196701   -0.94609633306936
H          -0.83079757552172    1.15876509340992   -0.15443253617268
N           2.01319039561649    3.55776856699197    0.61432059258120
H           2.19778584853471    2.83582826639047   -0.07548003643790
H           2.78640443305172    4.20902200956827    0.64159211293434
H           1.17094975283192    4.05116223502118    0.34972017031889
