    26
        -50.46309545  Gyration_radius:  2.39406445504 Dipole_moment: 2.606
 S           0.40755094863036   -1.50739102131621   -0.06473551163751
O           1.26927157092047   -0.37880544529739   -0.46602446370694
O          -0.99227659859766   -1.11851365691171   -0.22395478519077
O           0.71390975469938   -1.93688317591667    1.28131589338676
O           0.70420101735508   -2.67624995890910   -1.03199559978172
H           0.31822349127892   -2.34255672278194   -1.89197847858560
H           0.34389094733540   -0.92155666149211    2.44010485672659
O          -0.43805437194572    2.46315332317436    0.43724653382401
H           0.45966247230780    2.16329221650392    0.90393363164647
O           0.12242450241559   -0.19753245269199    3.08839295868783
H           0.18017196719795   -0.59620713047993    3.95792853865735
O           1.59639972176054    1.39750409644017    1.44232387877611
H           1.66561133151575    0.69211573252643    0.75447850232971
H           1.24945000307375    0.94419805172918    2.23160836646340
O           0.20497545687576    1.49298257279697   -1.85266589964618
H           0.95300807223223    1.96852697329337   -2.22045128814184
H           0.59177058127667    0.69352776109818   -1.39158774440038
H          -0.31079828492504    2.17990335841041   -0.53268090628521
O          -1.84475512167241    0.67510147842672    1.42960723262351
H          -1.65989022119774   -0.05292332497096    0.77734790675384
H          -1.33047911736640    0.42485040525290    2.22069295792001
H          -1.15272037654088    1.76857440242727    0.85993903754676
N          -0.57270787495777   -1.45402745532443   -2.95509051801168
H          -1.17804892341833   -1.90911221888334   -3.62595497807570
H          -0.16426293623135   -0.64026740133656   -3.39650046808945
H          -1.13652802187638   -1.13170374586088   -2.17129967380035
