    26
        -50.43839816  Gyration_radius:  2.49653870245 Dipole_moment: 4.132
 S          -1.57080910359772   -1.35002584829019   -0.25450453693002
O          -2.57008278464859   -0.78860392922973    0.66981523195653
O          -0.33152545314993   -1.66117369224519    0.39749268984503
O          -1.41493184696170   -0.48245232888086   -1.41555910161526
O          -2.18967788370780   -2.69626416074397   -0.78321848879270
H          -2.97067926094448   -2.40110055834644   -1.24039950329333
H          -0.80667963859584    0.89823312810011   -1.02591626314861
O          -0.50915636061693    1.77962042310945   -0.65186474687895
H          -0.80230808053538    2.44628971514962   -1.27627295849986
O           0.49768292108188    0.72222730556561    2.87310952287573
H           0.77507363942099    1.37374709301087    3.51994155939410
O           2.24172317180629   -1.40498284785830   -0.13422055316867
H           2.69590095827957   -2.01591734995618    0.44819110314017
H           1.28349687895311   -1.57092763185491   -0.00246813132364
O           1.88271753917784    1.10679101863921    0.72228455646961
H           2.15344675895524    0.22583325571316    0.37986734947657
H           1.21032920406026    1.42677601373614    0.10566698388252
H           1.12021328204449    0.81174050859466    2.08731881061152
O          -1.61518675049475    1.25646329841130    1.62312825433053
H          -2.09180291767138    0.34053074629662    1.28880433618614
H          -0.79980385920228    0.98622067085468    2.22526680580610
H          -1.20804482809104    1.62385356504804    0.77628087056430
N           1.30747512950655   -0.19347424300003   -2.86077894100723
H           0.34352362034613   -0.40806837084724   -2.62744270739582
H           1.48260773253365    0.76095279358625   -2.56802180365911
H           1.88649791205077   -0.78628855456479   -2.27650032882342
