    26
        -50.43839918  Gyration_radius:  2.49839467586 Dipole_moment: 4.158
 S          -1.35866228450024   -1.55976883727159   -0.31268069393268
O          -2.18881759979241   -1.43199891129255    0.89699706678347
O           0.02760439847800   -1.77146628991462   -0.01159412935889
O          -1.59424756829622   -0.43122056252025   -1.20503010341368
O          -1.89144423672436   -2.83808814176472   -1.05873653589759
H          -2.79279555402386   -2.60287085414784   -1.25435609731248
H          -1.13744903740285    0.92285393837952   -0.58557542453066
O          -0.90474278222062    1.74159272436446   -0.05535499736734
H          -1.42947324320964    2.45511758345921   -0.42378136651897
O           1.01614092327549    0.14467537660468    2.82486785942232
H           1.33239754579652    0.67571969647792    3.55817173976304
O           2.33398489749323   -0.85348994014254   -0.90943529950784
H           3.00038985272512   -1.47397536978511   -0.61008540897371
H           1.47017918176527   -1.24445737859807   -0.65572582248558
O           1.80750199809364    1.26952893626693    0.63448570273354
H           1.42554120614792    0.53099980404938    1.99037532658723
H           2.12059771341125    0.56175039098527    0.02802949640369
H           0.97389541136653    1.58155766222127    0.25699076112468
O          -1.38024220597370    0.50455963859611    2.16156674591295
H          -1.76916504146421   -0.39255278894708    1.68976852458052
H          -0.41881470511703    0.28012323487872    2.51573156615697
H          -1.23572002147742    1.12882676876480    1.38227969754731
N           0.64090740975074    0.74083309258627   -2.99629581774566
H          -0.19942545906386    0.28359691551576   -2.65789847104636
H           0.73006362717927    1.61664224538614   -2.49396237577827
H           1.42179560378067    0.16151106584745   -2.70875194313936
