    26
        -50.43839794  Gyration_radius:  2.49639986934 Dipole_moment: 4.132
 S           1.95575273933107   -0.43324212908749   -0.58261262997971
O           1.29583740347087   -1.02068824420726    0.54745404009447
O           2.63216052601564    0.83094407865222   -0.24743621423424
O           1.08149145098787   -0.24716850817148   -1.73416235441351
O           3.09470945754522   -1.41685079754932   -1.04167567640304
H           3.44272497967215   -0.98587675520359   -1.81580381537717
H          -0.10054456663298    0.71508733594779   -1.40982670173157
O          -0.75526298447684    1.41907196243571   -1.12522536160799
H          -1.04052944317734    1.85783240603959   -1.92920026969360
O          -0.16952620993659    1.41486801129053    2.64504609162297
H          -0.61708524598266    2.04674352075593    3.21097071402363
O          -1.00345234596372   -2.22830418471813    1.01956770450346
H          -0.12148971316117   -1.85949651953884    0.79746581040153
H          -0.88609053030644   -2.71369505894368    1.83768749318827
O           0.92171772746469    2.37046698474332    0.59390348405615
H           1.74695694086741    1.73889246430492    0.28185087541056
H           0.20276046738339    2.15632887584236   -0.08071071110010
H           0.56363099909597    1.99475473504083    1.50575495063365
O          -1.96127630985558    0.26784699510391    1.17312375314350
H          -1.74807102067216    0.61038311464452    0.29452827262683
H          -1.74947670324569   -0.69156859841797    1.13794856453466
H          -0.88722072837251    0.90004879331337    2.16249131239369
N          -1.55603498919885   -1.83944722381981   -2.03297187345615
H          -0.61986040217651   -1.46804561235310   -2.15676198502372
H          -1.54660336114383   -2.36787334719357   -1.16765861241357
H          -2.17521811753250   -1.05101230891532   -1.88374689119704
