    26
        -50.43839765  Gyration_radius:  2.49522127974 Dipole_moment: 4.108
 S          -1.65018186654874   -0.51815824355834   -1.16565146026420
O          -2.46562978722038    0.70272289547429   -1.05619754893793
O          -1.34457655455325   -1.09215236280957    0.11292200009530
O          -0.47164442013605   -0.26533567579793   -1.98567776011505
O          -2.53279413076843   -1.55051892591918   -1.95957695225307
H          -2.64347173881014   -1.12462071029278   -2.80370699136244
H           0.49368564691483    0.74981822993646   -1.30403919308334
O           0.98694390589595    1.48000603224536   -0.82544967827720
H           1.48479803132906    1.94981326503396   -1.49752231001748
O          -0.74302255556830    1.35900781973483    2.57198996711128
H          -0.52782340605710    2.00001000460510    3.25216655794708
O           0.75476481697589   -2.20294531541988    1.26438365450304
H           0.41558323819373   -2.71310668719972    2.00154628797049
H          -0.03314894756156   -1.87120041309416    0.78235927423425
O           1.47677829596429    0.33487658533132    1.72610031200522
H           1.34006316611401   -0.63286978152194    1.62038481457968
H           1.52908330807198    0.68693868275325    0.82717001059452
H           0.11546266751020    0.89036545657234    2.33430559163226
O          -1.19157901250374    2.30640273220056    0.28925649086885
H          -1.11515264027467    1.92741963433761    1.26498754678857
H          -0.28754004938623    2.14446298542770   -0.12837071525506
H          -1.84186009024579    1.64238684077395   -0.26919017627304
N           2.22096979370657   -1.69685132626623   -1.44960584806280
H           1.35008840886643   -1.37806989974458   -1.86145630202228
H           2.70785294577395   -0.87798948259874   -1.10377827736209
H           1.97235098431532   -2.25041233020256   -0.63734929504622
