    26
        -50.43839725  Gyration_radius:  2.49467418731 Dipole_moment: 4.101
 S           0.28055841059728    1.31576556222003    1.59222337064791
O          -0.73054893404946    1.45405493616139    0.58409956627116
O           1.54945506262046    1.95698670312959    1.21028215149103
O           0.51432344430752   -0.06573736265932    1.99464712543578
O          -0.21219663280901    2.07739244870768    2.87769400599805
H           0.47809975571158    1.89332866951967    3.50677680239260
H           1.00293999346107   -0.93293133387609    0.79579330609464
O           0.57405231835139    1.23486062215878   -2.67519827464919
H           0.89137507467578    1.13113116994401   -3.57431607050270
O           1.40397889985420   -1.36830239776705   -0.01349072263677
H           1.94204323358749   -2.09234586829976    0.31290088978898
O          -2.60642266880957   -0.06902498193497   -0.47774313332406
H          -1.96453994072192    0.50075954291878   -0.00179092500023
H          -3.23783786624782    0.52820306698746   -0.88187100276524
O           2.29110730789168    0.90034882155844   -0.87279241986052
H           2.07435480189424   -0.05318352550091   -0.62456594689799
H           1.60667821420051    1.14970638927096   -1.62860068558428
H           2.01243485686319    1.45447958129075    0.01633935801500
O          -0.59144827773545   -0.97202010062158   -1.99451002349823
H           0.02733334578544    0.41621422312421   -2.46523219100828
H           0.01356879012806   -1.31803525510027   -1.32444513793083
H          -1.41430072955279   -0.74030252885900   -1.50910375910212
N          -1.58466923770123   -2.28286855850024    1.47813074676438
H          -1.05727696029947   -2.76037829580918    0.75626604164720
H          -0.96020118726272   -1.61205922688635    1.91371689791390
H          -2.30286105474431   -1.74604229117588    1.00479000030257
