    26
        -50.46309546  Gyration_radius:  2.39404300981 Dipole_moment: 2.607
 S          -1.07949997285029   -1.10882558178616   -0.21638564734047
O           0.17977213769525   -1.28852487993704    0.53142320256896
O          -0.89462635568771   -0.05880637050419   -1.21604718852086
O          -2.17773335234678   -0.83184292861854    0.68223113611404
O          -1.36988652139507   -2.43811626881785   -0.95041107054304
H          -0.65020432126478   -2.45822441902026   -1.64444291589083
H          -2.13738342214293    0.56687080851677    1.42546032440104
O           1.60093878131061    1.83478911761991    0.72226031450460
H           1.22247267138378    1.32664234527591    1.56607834528291
O          -1.99419808971129    1.44196781516299    1.88067970879954
H          -2.82086188792999    1.64918120778573    2.31886038770616
O           0.47206449432935    0.44952715431839    2.48054500599822
H           0.34402544620103   -0.33539862402899    1.89493756978233
H          -0.41140735165253    0.85289528159091    2.55532077452995
O           2.31697450269237   -0.31397738348015   -0.48944595731963
H           1.47275300673035   -0.75446758025960   -0.18202481195211
H           1.98198967939979    1.08860976751342    0.14325376806866
H           3.02640416872147   -0.74853154869117   -0.01107537536231
O          -0.61315908728268    2.33427320814654   -0.28219104773643
H           0.69276339964609    2.15977072791371    0.23096438268875
H          -0.76334477487517    1.47953229119649   -0.76844330580589
H          -1.20660636213484    2.27780672439735    0.49082485219300
N           0.54877934205893   -1.95454339837369   -2.65540371880904
H           0.24493384810664   -0.99639983512144   -2.49485516632345
H           0.49948536496302   -2.14975577586268   -3.64683145220375
H           1.51555461476687   -2.02445246510334   -2.36528218592188
