    26
        -50.46309518  Gyration_radius:  2.39378488643 Dipole_moment: 2.605
 S           0.95688169980852    0.62039202957255   -1.07086687305436
O           1.14610003250070    0.92821412838462    0.34525573067069
O          -0.45533319706726    0.25977755145755   -1.30065026894419
O           1.83852562127359   -0.42812850631834   -1.53274629432892
O           1.24223276469774    1.89869281396447   -1.89212005649112
H           0.70762584480256    2.58792125020505   -1.40310517711143
H           1.79449446933351   -1.78514171649012   -0.71563563770896
O          -1.48599340561403   -1.35457636094961    1.55060996395187
H          -1.38362815040997   -1.84503877697541    0.62178921932413
O           1.65678836286977   -2.60932697795430   -0.17224875743243
H           2.37721062416844   -3.19857190848796   -0.40046785530099
O          -0.98533002360975   -2.25092677725953   -0.73653380352270
H          -0.81994128129827   -1.36284221766308   -1.13589510806375
H          -0.10181768569894   -2.64871236150010   -0.63676730794213
O           0.94688312565667   -1.08066999681378    1.95838415711556
H           1.32899513658746   -1.77969691110389    1.39411529690383
H           1.10144487761566   -0.24187956497159    1.44623082416755
H          -0.45418952708933   -1.23900041207433    1.85759331573342
O          -2.15695503456046    0.89397121041453    0.50497086049158
H          -1.80935926915314   -0.42309736802339    1.29605784778037
H          -1.46887735044396    0.75303892155212   -0.20789599392731
H          -3.00641295293151    0.81842133577358    0.06484727090120
N          -0.14791254693187    3.32990575264123   -0.20633485925325
H          -1.15601180251074    3.24554347589875   -0.18329979713922
H           0.09996645449994    4.26002052793338    0.10537702623143
H           0.23461320339746    2.65171086873800    0.44933625691417
