    26
        -50.46309539  Gyration_radius:  2.39399062085 Dipole_moment: 2.607
 S           1.44425962126820   -0.37368654378790    0.46912084310880
O           0.99377658814005    1.01558316958860    0.52347465784627
O           0.67740070327939   -1.08830356386714   -0.56947746323751
O           1.33187922439896   -1.04328762992255    1.74550528685643
O           2.92810199645092   -0.39072049091334    0.03554195213009
H           2.92354036440438    0.21834675303689   -0.75746853862131
H          -0.09794878067142   -1.00809101525020    2.42762112100730
O          -1.04114738883349   -0.97469728403966    2.74816550248890
H          -1.02020797798605   -1.27162146483249    3.65905192685524
O          -2.46504633570384    0.29933415947061   -0.53359760626603
H          -2.27484927545469   -0.69281853499065   -0.22769072143680
O          -1.66260030565916   -1.93385534399158    0.27446276936666
H          -0.73809343865964   -1.80897847955308   -0.05001728838340
H          -1.60636234260152   -1.81952389584139    1.24018022224107
O          -1.39853228661208    1.37554936632281    1.43245350267160
H          -2.08508926975838    0.86862241226755    0.30497335322411
H          -1.42819905565334    0.66203051456121    2.09800431887770
H          -0.45409081432876    1.37917363541564    1.12008780978709
O          -0.59269267251437    0.31807247314758   -2.29239839096039
H          -0.79100782878766   -0.29877682053486   -3.00031578685447
H          -1.80520145020182    0.44668915522650   -1.29508640574456
H          -0.00572601939789   -0.18108936977251   -1.65409571032545
N           2.43620758073659    1.36997517975877   -1.83038785695477
H           1.91619186563685    1.09982874545515   -2.65534269937960
H           3.04782189452073    2.13707979520723   -2.07765042935728
H           1.76761538344604    1.69516508752258   -1.13511438872412
