    26
        -50.46862856  Gyration_radius:  2.47485502971 Dipole_moment: 4.024
 S          -0.94443651703520    0.04310001328420   -2.03742431588280
O          -1.47902935316526   -0.71755470696513   -0.89503566633191
O           0.48005237616515   -0.11618853575789   -2.14390364222174
O          -1.41440652017807    1.41294889351188   -2.03167073390324
O          -1.59298041257150   -0.62262270173605   -3.32543761814638
H          -2.40345626905827   -0.12973365866711   -3.39832799458658
H          -0.52074695032166    2.07539117004649   -0.86908895818728
O          -0.03790828440638    2.43872365898936   -0.08647728033130
H           0.21134972416988    3.33440673333270   -0.32091295553090
O           0.03506423771885   -0.55101955720438    2.67286660368815
H          -0.22627684705424   -0.64266524306746    3.58922628383739
O           2.46931858865736   -1.00129811688037   -0.60841287935584
H           1.30524738844532   -1.73216136739138    0.00505559535841
H           1.96765499386514   -0.65597245923938   -1.37055035500574
O           1.93892446805155    0.93258727841856    1.14657504326342
H           2.51553065622952   -0.24124574195544    0.01765783459304
H           1.30671445713308    1.49980577660644    0.67277557622519
H           1.42583152465858    0.48359513384074    1.83188077250672
O          -1.73563939036912    0.78027929442221    1.31690470219696
H          -1.82068369554766    0.23641741652684    0.50868234986859
H          -0.68596807605863   -0.01761798995614    2.22323141293497
H          -1.27041043240489    1.57785727591429    1.02142518035686
N           0.35190718203584   -2.05540863124370    0.42843624994904
H           0.27545538859765   -1.67446459837998    1.39086462549901
H           0.25187312829875   -3.06364385214426    0.41688623113781
H          -0.40298135585681   -1.59351547430688   -0.15522606192984
