    26
        -50.46862858  Gyration_radius:  2.4749863115 Dipole_moment: 4.018
 S          -0.94483281061842    0.21362729813220   -2.02657453471322
O          -1.36680134974230   -0.77551898267486   -1.02013244116518
O           0.48788401353929    0.26863834543381   -2.12835525669728
O          -1.59950559827210    1.48981247349058   -1.82621013510971
O          -1.49785036246538   -0.33365888470476   -3.41113464406570
H          -2.36786252815755    0.05103152118957   -3.42525036736342
H          -0.80428858716254    2.09051708378215   -0.56255488984194
O          -0.37571669919110    2.39693547364723    0.27409512302632
H          -0.25416661487038    3.34323524077715    0.17902608197814
O           0.11452680140302   -0.93244343733049    2.56184718500374
H          -0.13116554210863   -1.19495163697279    3.44905853641228
O           2.58387308157002   -0.54922135753212   -0.70116431070725
H           1.53382190947821   -1.51717378537947   -0.22525121713352
H           2.03780098637305   -0.16732354721562   -1.41367119161704
O           1.79254007259615    1.01017877655471    1.30993173979853
H           2.52474413480749    0.10816987081232    0.03096378543691
H           1.08715219461611    1.54944980743382    0.91309421870173
H           1.34755121423584    0.39773215133578    1.91108077418232
O          -1.82540651391327    0.32913256884411    1.38222490686688
H          -1.83508737406329   -0.09518856333028    0.50126419630403
H          -0.67400179479120   -0.44243414704527    2.18151333420836
H          -1.47619600758966    1.21822863786289    1.21673804872908
N           0.63548700023931   -2.02829118595874    0.12714807578177
H           0.50764565006727   -1.80862822916304    1.13350724976786
H           0.67717440193578   -3.02773680555021   -0.03439034834927
H          -0.17731969791567   -1.59411868643497   -0.39680387943404
