    26
        -50.46570315  Gyration_radius:  2.4302028216 Dipole_moment: 4.260
 S           0.11814551363574    1.66811605796929   -1.03575935280496
O          -1.07641787493678    1.77118062179648   -0.20087851451773
O           0.01578737752080    0.56680849051749   -1.98263969431064
O           1.34170694491035    1.66939583870307   -0.26973113057473
O           0.14255997754702    2.97839095398542   -1.92839600210760
H           0.38981200570294    3.66508636867919   -1.31679800810359
H          -1.24556516271566    1.07053419263615    1.49584194766454
O           1.27726227840753   -2.13081746657195    0.56513104206536
H           1.79264844103358   -2.93127015692321    0.67096110586615
O          -1.18133281474292    0.43801990949885    2.22776228349571
H          -0.22126739331047    0.40817251702055    2.43374025068260
O           1.47915387742216    0.25262393615850    2.06555034488151
H           1.51672269962562   -0.64263299167652    1.69668567192011
H           1.52492734523481    0.85360264862846    1.30238843052144
O           2.28506263379304   -0.66050132386142   -1.37372446479263
H           1.66256955865123   -1.64758630736435   -0.21249782206260
H           1.48080847583110   -0.31373478594308   -1.80367211948033
H           2.62081317927627    0.10422554679800   -0.89094543101172
O          -1.41491978353211   -1.86002455401755    0.99054341523078
H          -1.90675398936649   -1.15531437714898   -0.20219046740827
H          -0.47415442617589   -2.07822670663388    0.85418195487048
H          -1.40670148602661   -1.08357202063591    1.61657776744781
N          -2.16670802615754   -0.44073058583933   -1.00407129987537
H          -2.09138935485640    0.51381107403375   -0.57795297438765
H          -3.07054508330158   -0.62135886910149   -1.42605387208296
H          -1.39222491350129   -0.39419799070638   -1.69405306109452
