    26
        -50.47250315  Gyration_radius:  2.48728774091 Dipole_moment: 2.887
 S           1.26078826767387   -0.71795817172297   -1.74336464842811
O           0.03350948269323   -1.39575447599100   -2.14321698217718
O           1.47840152457203   -0.78984664233611   -0.31120631464997
O           1.33476301127758    0.63047141424354   -2.27236165248169
O           2.45325303959532   -1.51945286540359   -2.41061610085896
H           2.32546888200850   -1.30594691998029   -3.32852087360386
H           0.33716997031376    1.63492250548269   -1.54172454167994
O          -0.24395443834830    2.25996414464828   -1.03379193129872
H          -0.43604292783827    2.98518605881731   -1.63001382887197
O          -0.37122546902294    0.66728185289345    2.64705035395246
H          -0.27461001884429    1.05338857242864    3.51772956833128
O           0.12856306917828   -1.89094745473488    1.75135548937468
H          -0.03806208474645   -1.07703838121220    2.26115108730883
H           0.82215696274978   -1.64589941497956    1.11129572206027
O           1.47871154229572    1.52346166037662    1.02550303922872
H           1.66002778214445    0.69036942366789    0.54569208268084
H           0.99037951547839    2.06652779182243    0.38943885668537
H           0.38151601283329    1.02632829435186    2.09299586852403
O          -2.09029979092548    0.97441067083821    0.51732995904067
H          -1.95896445099234   -0.54542415659658    0.04877961208784
H          -1.62823355302934    0.94907438911832    1.37466889301935
H          -1.51082667011219    1.49381876581637   -0.07170576026368
N          -1.64622663020657   -1.54013618439351   -0.15486953919288
H          -2.43407973103057   -2.16161782492663   -0.29589286160882
H          -1.03558925310790   -1.84255179605987    0.66315963213244
H          -1.01659407461000   -1.52263122616855   -1.00886511931103
