    26
        -50.46570319  Gyration_radius:  2.42998577545 Dipole_moment: 4.264
 S          -1.16328692330573   -1.58483561192614    0.05015135882229
O          -0.65833404939405   -1.47488148306345   -1.31638781061751
O          -1.97218830527006   -0.43089092389416    0.41626461511740
O          -0.13093967514885   -1.90326928134427    1.00756051650177
O          -2.17014208559023   -2.80977133548538    0.04767676682796
H          -1.60132323115013   -3.57104044148248   -0.01307598405318
H           1.01740789599315   -0.86203771263963   -1.77430116260362
O           1.81202065718044   -0.30652223378948   -1.77899629226051
H           2.24465367346918   -0.50137238128723   -0.91878048101788
O           1.09758823858212    1.75807146924072    1.48136586618471
H           1.41569652725152    2.41728959195895    2.09926534737319
O           2.31719929046851   -0.69995973290241    0.81491512805857
H           1.52285153988825   -1.24752485260713    0.93688311884063
H           2.07433760123155    0.18634740379666    1.12213782484774
O           0.83162597987281    2.05979838345652   -1.22802604957704
H           0.95094217124988    2.07392747252539   -0.26013900789347
H           1.34638380445572    1.26236219361353   -1.53496514502941
H          -0.51767667938278    1.55734428055220   -1.52295448864304
O          -0.69871429005313    0.22438841740901    2.64664832420180
H          -1.34637639595793    0.09130102057633    1.92912082235089
H          -0.24156782184416   -0.62419948676473    2.68696373034242
H           0.38491029092873    1.25076381093994    1.95195851312082
N          -1.43637938632692    0.96952166620117   -1.70196998685655
H          -1.11909001424748   -0.00195566087312   -1.93272769182706
H          -2.04040498866477    1.37272114700953   -2.40922435144707
H          -1.91919382423797    0.79442427080766   -0.79936349077353
