    26
        -50.47250314  Gyration_radius:  2.48732849017 Dipole_moment: 2.884
 S           1.20868434163100   -1.08718783399356   -1.58160728678561
O           0.00842437482732   -1.90500426105327   -1.70725264232924
O           1.50733517989186   -0.77089291588637   -0.19797451986710
O           1.16604015714390    0.07759159238321   -2.44468246683025
O           2.41315579686275   -1.97604270600849   -2.10011624528573
H           2.22311457927673   -2.01545017250832   -3.03114787596955
H           0.14576718772842    1.18842142647083   -1.93119882961330
O          -0.44642087796071    1.89574090918331   -1.56336879724688
H          -0.71755394473454    2.42844861303372   -2.31239168368273
O          -0.27019579397001    1.31830056715988    2.40434232172354
H          -0.15008213377511    1.92135259566608    3.13810486363972
O           0.34571927632359   -1.35738782883716    2.16746771940869
H           0.15389322929371   -0.44736793988436    2.45947175988148
H           0.98648278596925   -1.25518508149530    1.43964212004540
O           1.42936434609828    1.80890942703080    0.49234583400279
H           1.63803178620810    0.88904922989744    0.23257416881335
H           0.87335541182880    2.14236044970277   -0.22707642366441
H           0.42621128945903    1.55612175711537    1.72542304485579
O          -2.11839813198763    0.97272745943248    0.39116200263936
H          -1.91356111182131   -0.60846842052550    0.32331437591167
H          -1.61047564021334    1.19579082824385    1.19196821122383
H          -1.60655535203833    1.34738540320912   -0.35059517109000
N          -1.54814179108594   -1.60529513642909    0.36238964400647
H          -0.96809047421892   -1.78141014014453   -0.50859920376462
H          -2.30025862107749   -2.27980874925691    0.44122852663721
H          -0.87584587966180   -1.65269908250580    1.18657655334022
