    26
        -50.46999618  Gyration_radius:  2.46245338989 Dipole_moment: 3.049
 S          -1.19044327646553   -1.68173462816760   -0.81078602407757
O          -2.47446475715372   -1.07743447912553   -1.07106104636744
O          -0.85095876896264   -1.83575193730495    0.58077328930838
O          -0.09460808689163   -1.01938649872841   -1.54124288228905
O          -1.27839723651711   -3.13946024847608   -1.44869696826776
H          -2.17998879154954   -3.14895401860130   -1.75169346244781
H          -0.24843442981697    0.58921969149120   -1.82930921046186
O          -0.30715632619329    1.57309099345197   -1.89548310708463
H          -0.57831802156079    1.76724345573818   -2.79333819614560
O          -0.00057007745011    1.42161898197238    2.09401629610296
H          -0.37092897942507    1.95637492423545    2.79718159382397
O           1.66421752517618    2.03177603929820   -0.01014123421078
H           1.14121207320780    1.99926357855258    0.81229348011108
H           1.01419678526815    2.09036802026182   -0.72996534346986
O           1.04356765967233   -1.10989614483395    2.27918126031273
H           0.28647912352447   -1.55412308596335    1.84851681387823
H           1.79024924572423   -0.87146209937641    0.92860437831906
H           0.71820645834573   -0.20803044595418    2.45363813045469
O          -1.90516810287261    1.12478676166603    0.31672261554612
H          -2.23823863680380    0.27749757542848   -0.03111428677112
H          -0.75545370069535    1.22141030065396    1.47879995793643
H          -1.49822468119410    1.55745207791324   -0.44999150159372
N           2.05355268760177   -0.58012210953242   -0.07053718790584
H           1.25140841226988   -0.86960745321193   -0.69041396079557
H           2.92539359922131   -0.99524483317652   -0.37678552819293
H           2.08287029353970    0.48110557178868   -0.08916789571251
