    26
        -50.46999664  Gyration_radius:  2.46251358407 Dipole_moment: 3.029
 S          -1.96367297498056   -1.01808981653257    0.10194959459870
O          -1.21882644994673   -1.08180300208931    1.33357890376484
O          -1.79323614541133   -2.14541206510386   -0.78222390457829
O          -1.73740781319710    0.27189807659139   -0.57436497439279
O          -3.51278290097016   -1.01172350423078    0.47606659766955
H          -3.80613739676409   -1.80409403560953    0.03929813115838
H          -0.64853286662992    0.29666133096620   -1.80256160503549
O           0.08719155001155    0.31441973527113   -2.46148173894486
H          -0.32502828121151    0.31061601553930   -3.32607873004479
O           2.37459526807632   -0.49056746941444    0.72469714572233
H           3.17287941181812   -1.00728765694345    0.84013671913681
O           1.81099663346190    1.71864000686010   -0.81575433210516
H           2.21047026440324    0.98967396623536   -0.30583407472326
H           1.35090765108080    1.29477462450017   -1.55924177515356
O           0.85127483412374   -1.85057430948664   -0.91969456403265
H           1.75826743330579   -1.05879779222264    0.19017189859188
H          -0.06954669675585   -2.12414366011177   -0.75504234084452
H           0.78908323030238   -1.22531227658227   -1.65851963022375
O           0.59835134679248    0.31433459833340    2.65604911084813
H           0.07621077416397    1.41479675910934    1.67906342167722
H          -0.10286193487139   -0.32023655806330    2.40764575488437
H           1.37957032282389    0.00643721462761    2.16152251983535
N          -0.25397326056670    1.95790753484662    0.81387215126695
H           0.58223648532084    2.05260959194435    0.16638094918086
H          -0.66019051894445    2.85469199189319    1.05257246514615
H          -0.94983795543153    1.34058070967727    0.31779230660801
