    26
        -50.46999694  Gyration_radius:  2.46262154961 Dipole_moment: 3.017
 S          -0.38221155397256   -2.15843905795587    0.31502552901532
O          -1.81200605800183   -2.26246124660940    0.15197040526755
O           0.05426948643022   -1.47381676669505    1.50530336261814
O           0.28550862285796   -1.60384983276918   -0.87617347451569
O           0.13785392604441   -3.66201956446945    0.40605292095014
H          -0.68599816231084   -4.13738331704731    0.39947179007394
H          -0.56137625784377   -0.52576339057659   -1.77931091762105
O          -1.04288062534157    0.20053503110770   -2.24447791718676
H          -1.41203857610669   -0.18641991608206   -3.03911740173795
O          -0.51904726499135    2.16307520435924    1.20636681008539
H          -1.05111501167275    2.80353309062943    1.67996291205954
O           0.62051950116514    2.19780132903822   -1.29795466873645
H           0.20112511160739    2.39297114605179   -0.43947282113363
H          -0.02299769482861    1.65697672670778   -1.78528874185720
O           1.52291033936561    0.61684708900965    2.19251753918675
H           0.84807645294346    1.30274737359959    2.03819359207682
H           1.01354946991738   -0.21784025900842    2.19782545394884
H           2.03194405254991    0.40478058174761    0.73179828363708
O          -2.18782707984958    0.37250611740791    0.26710251006109
H          -2.13739936517541   -0.58995716030887    0.41225907403221
H          -1.14102615037066    1.43213111490729    0.94674041182234
H          -2.04326575544042    0.48090360794940   -0.68579654997014
N           2.09786648491768    0.23557582751886   -0.32631593927282
H           3.04856712898418    0.06511148014890   -0.63180090075179
H           1.66450870575498    1.07834052476198   -0.80529400697811
H           1.47249028336826   -0.58588573342364   -0.53958725507895
