    26
        -50.46999659  Gyration_radius:  2.46261446972 Dipole_moment: 3.035
 S          -1.53818579633057   -1.49464063949582    0.55211858647394
O          -2.06181091597252   -0.97884988116839    1.79368645670788
O          -0.19279329730105   -2.00619950363266    0.61508840339954
O          -1.67786517029748   -0.53961396030112   -0.56195552017927
O          -2.49712087267874   -2.70777899064279    0.16701284854409
H          -3.06886204742935   -2.73221606789120    0.92679861455757
H          -1.61097783873722    1.05891600590570   -0.19475642879912
O           2.24549370041758    0.75455338647840    0.89088384497748
H           2.88918267034779    1.02329892470597    1.54740156955303
O          -1.45801172059422    2.00858084135336    0.03004958772665
H          -2.32158810621457    2.42198085029847    0.05585261110717
O           1.03141727714523    2.11281821560456   -1.17130023448741
H           0.17071727002672    2.30631764738935   -0.76399496453480
H           1.59768776422060    1.79145286570508   -0.44532016462258
O           2.16363014185266   -1.59974834813484   -0.51721837718692
H           2.42707744914989   -0.82503466725283    0.01203907292344
H           1.41101848071425   -1.97901595529550   -0.02138062908870
H           1.24112191216563   -0.90751174641526   -1.56952754457714
O          -0.08436260235963    0.78138233070932    2.09275516904545
H          -0.71420278931297    0.03905004744284    2.13922909133461
H           1.38368466676126    0.66130805405821    1.37780554210344
H          -0.54404942285285    1.45563294600903    1.56858390720857
N           0.48799283491656   -0.31626899933525   -2.05520862138109
H          -0.41515126648867   -0.49883066705790   -1.54294886200303
H           0.40351501593559   -0.53238417498949   -3.04129536577939
H           0.73244268291421    0.70280152595340   -1.88439861302357
