    26
        -50.46999654  Gyration_radius:  2.46251896332 Dipole_moment: 3.032
 S           0.81252211677625    1.89842873810393   -0.79928594162361
O          -0.23914534728071    2.08512005186412    0.16759063089067
O           0.38810172765986    1.87973839581134   -2.17812597613222
O           1.64049999028337    0.73135836014538   -0.44552012892862
O           1.79958120467342    3.14419697335100   -0.68342685285805
H           1.73445798806300    3.50689029674626   -1.56034784815069
H           1.33351277959969   -0.67479734207358   -1.23474199495899
O          -2.28614533997335   -0.97140776775973    0.48642064677163
H          -3.20506816043103   -1.18843087314446    0.32493397704746
O           1.06154603285972   -1.53459415248371   -1.63794486011545
H           1.69122324049301   -1.71590609886627   -2.33649390373179
O          -0.02936166099256   -2.53097118941230    0.70061759580877
H           0.35065012140045   -2.40303915817713   -0.18444758111575
H          -0.93006062903604   -2.16002762640963    0.65449492873477
O          -1.27843258714490    0.85705778958962    2.26821367190709
H          -1.83184155249769    0.21948260576900    1.78149872871584
H           0.10216037557897    0.13144644849753    2.19056565453520
H          -1.03274662089740    1.51969840325425    1.59252142409457
O          -1.31670186132672   -0.13268552814134   -1.80059687272480
H          -0.86515081885375    0.71706110185803   -1.95517648288315
H          -0.63220249531356   -0.80183831015222   -1.95672827148585
H          -1.95447915086260   -0.55297252871155   -0.35223717712937
N           0.98333034429113   -0.38257185455133    1.85625992020109
H           1.69633668456298   -0.43367631573109    2.57404527317840
H           1.33032093087183    0.13520584209681    1.00602429094727
H           0.67709266749269   -1.34276627147208    1.52188718899969
