    26
        -50.46999659  Gyration_radius:  2.46256338334 Dipole_moment: 3.034
 S          -0.21947908567896   -0.32569809765030   -2.17933797681384
O           0.74550363803765    0.58686825537763   -2.74302178012743
O          -1.37111781045427    0.29151489379583   -1.57229176789268
O           0.39282959095124   -1.29934473109904   -1.25747080898709
O          -0.73362487977531   -1.20054332965122   -3.40806007534558
H          -0.27399312686013   -0.78403263927824   -4.12915540744081
H           1.71233196055660   -0.80761223123557   -0.41375241580045
O          -0.47104361232936    1.86422674837674    1.64547339520464
H          -0.48081389921023    2.75981028192018    1.98518792354568
O           2.43400175989569   -0.45883082649967    0.16358349344409
H           3.25539710973013   -0.78849331358865   -0.20265608209543
O           0.87107079200877   -0.40087932292882    2.44506468862276
H           1.59365759501618   -0.40877416177618    1.79550999510403
H           0.44636963428416    0.47212079308102    2.35302123607054
O          -2.60393597673133    0.37687941206481    0.76729786505996
H          -2.02112932197136    1.03108988872853    1.19396769699517
H          -2.38246139418684    0.44814839163483   -0.18241191994540
H          -1.74968842928474   -0.91534123018252    0.96412070453741
O           1.10778678870856    1.88977185861814   -0.44739930248125
H           1.79727185407927    1.27384310362877   -0.15427698881908
H           0.87603555491375    1.58569310314623   -1.34390656778239
H           0.03903235675701    1.90273808837529    0.79289841031356
N          -0.95392080831196   -1.63553022374558    0.98834897527969
H          -1.28411395181025   -2.56884531861066    1.20309938688280
H          -0.23904520995752   -1.28788764261503    1.69232562258892
H          -0.48692115837892   -1.60089172988737    0.04384169988072
