    26
        -50.47250312  Gyration_radius:  2.48712883489 Dipole_moment: 2.877
 S          -0.52544290024239   -2.05661684491299    0.79740735466705
O           0.69024652462379   -1.54477560423102    0.19432284964266
O          -1.67104133686445   -1.93306767278354   -0.09569520307350
O          -0.79670627334815   -1.50343752353937    2.11042728311405
O          -0.29004562074869   -3.60833836141620    1.01316010422877
H          -1.04894262422031   -3.83723268594005    1.53872038029366
H          -0.84810050703816    0.08922456065340    2.10661110981495
O           1.78680838523296    1.92062160920505   -0.84218203052011
H           2.52831010154458    2.52405329818265   -0.89250719315936
O          -0.81372720408645    1.08168050591333    2.09819033875415
H          -1.34888920812552    1.37026432741844    2.83892621806199
O           1.29717371247823   -0.43307058194048   -2.18969750495739
H           1.28458661500597   -1.00626844244672   -1.40103598037001
H           1.61666448751841    0.42889440983383   -1.86547601861928
O           1.82616550834213    0.56238183311719    1.38017726032394
H           1.05780696659367    0.89654609102321    1.86579249468460
H           1.53679196430923   -0.30576652803336    1.03405270213064
H           1.88294273065189    1.42562453596463    0.02279460579776
O          -0.92712901102930    2.13324467791901   -0.42197231889101
H           0.01993020905809    2.24958806548676   -0.61854169861142
H          -1.27849685205541    0.86506329943714   -1.32496316202916
H          -0.96188235446793    1.82760346593878    0.50422476700049
N          -1.28235031938875   -0.05310584290033   -1.85938055324835
H          -1.94032203640342   -0.03809352775552   -2.62988914981868
H          -1.51133177184404   -0.83359027384843   -1.17775319046331
H          -0.28301918549684   -0.22142676034575   -2.18571346475356
