    26
        -50.46862861  Gyration_radius:  2.4749959635 Dipole_moment: 4.016
 S           0.33195545672970    0.24249434873729   -2.20824091063816
O          -0.86613468479532   -0.37749595705762   -1.61698129118126
O           1.52834067770067   -0.22961093770855   -1.56650802983478
O           0.20120161747749    1.68255982047727   -2.28985905788500
O           0.36900632293462   -0.26549139966606   -3.71256876880378
H          -0.16291599832857    0.39599526397736   -4.14226219378136
H           0.43068545579210    2.13663583748358   -0.76354246645297
O           0.47224721396520    2.38766542138757    0.19198145807469
H           0.97020861757405    3.20616417124302    0.22976691104339
O          -1.51657090888393   -0.53690595055244    2.20372551616610
H          -2.24158733795819   -0.56418041457931    2.82822512827250
O           2.16766449457893   -1.52270695234452    0.67397884292477
H           0.74445241103740   -1.97746731818210    0.49043284078205
H           2.23263132320246   -1.07867330104462   -0.19216441703809
O           1.14690943823934    0.48635237233411    2.09618367846778
H           2.00932382561138   -0.78917943053573    1.31326721152551
H           0.99014083671754    1.17789265877435    1.43053421751413
H           0.27177421197651    0.16306378894555    2.34953334048160
O          -1.98903103621065    1.14788550606348    0.28419762046670
H          -1.72464512461187    0.63348053822527   -0.50429889732448
H          -1.76598353802331    0.14079597932405    1.50724478999613
H          -1.29828862325622    1.82227075846385    0.37346122584857
N          -0.32685759655696   -2.08157925681183    0.30629425738487
H          -0.83807593497867   -1.69043055684301    1.12042000088637
H          -0.59128285844460   -3.04302720157894    0.12632483180450
H          -0.54516826140613   -1.46650781851222   -0.52914584876639
