    26
        -50.43974030  Gyration_radius:  2.42971416437 Dipole_moment: 3.747
 S          -1.68584386412347   -0.35705791949325   -0.52580606953298
O          -0.61970587405206   -1.31174427535286   -0.81634666969890
O          -1.22314760173310    1.00341553645536   -0.42336227180106
O          -2.45971938038790   -0.78992804679015    0.63081387174271
O          -2.68293710844151   -0.41673540739642   -1.75797134563513
H          -3.22712468704831   -1.17608948097616   -1.57150551315619
H          -1.47043755075655   -0.84528705025700    1.82692495786144
O          -0.74756248938555   -0.89820104497200    2.52185831797795
H          -1.01725989161003   -1.59022000577041    3.12936728619558
O           2.29027257695563    0.97636484623953    1.21204864586366
H           2.86680398614340    1.05477642057637    1.97313940235965
O           2.27265159467244   -0.17488388617975   -1.34614928198871
H           2.52810002457227    0.68615142870354   -1.00831684030299
H           1.56082968724499   -0.00775244416044   -1.99053497253303
O           1.19376639605012   -1.32004811905890    0.88132147147287
H           0.58599861338244   -1.35029029984881    0.02912204156783
H           1.76207928430664   -0.46551206688163    0.80533229833860
H           0.52586607573932   -1.18478289013685    1.63280534032069
O          -0.10649658411494    1.80085370304115    1.86165759832795
H           1.43322023183364    1.42465420305459    1.44627270658696
H          -0.56323969531078    1.68973100403398    1.00362890025559
H          -0.45896656591574    1.10458818123951    2.42764216195435
N           0.08663473878769    0.52269234101043   -2.94530788391104
H          -0.32727447273715   -0.39187180029625   -3.07693963186066
H          -0.12194351243308    1.07894493884238   -3.76554506905262
H          -0.39456391161415    0.93823214434472   -2.15414944136198
