    26
        -50.43974040  Gyration_radius:  2.42995117162 Dipole_moment: 3.748
 S          -1.77011739778114    0.09335187064324   -0.33038295161162
O          -1.27031617397583    0.22029052900079    1.01486541219367
O          -0.91226257149684   -0.71334657744651   -1.19386046664369
O          -2.06692728533786    1.37541826277544   -0.95671677045438
O          -3.15602117925776   -0.67303470140699   -0.24060780041251
H          -3.61030637090302   -0.41116428752588   -1.03596947785824
H          -0.70462981103745    2.09457976541041   -1.15546978192345
O           2.60263164962380    0.40018411901320    0.85866218347134
H           3.42332616810291    0.89426372081012    0.84230766792514
O           0.22380481610235    2.45402745518625   -1.28635932244858
H           0.18325084860234    3.00675787456885   -2.06966101029746
O           1.60012544004052   -2.10729167041101    0.09672267513531
H           1.98738934237279   -1.76382694038983    0.90475040543401
H           0.70381285529285   -2.40547230333205    0.33660998435006
O           0.64300208490832    2.01113240246442    1.49973935358167
H           0.50951115470532    2.55818690642725    0.71729145340231
H          -0.10466518730037    1.38011028519143    1.50222506515525
H           1.90664197402772    1.00067251034370    1.23977347405311
O           1.40203465159147    0.16576859714565   -1.39751089686836
H           0.51989359910595   -0.39329321402906   -1.32018495930138
H           1.06585796993627    1.12302673667949   -1.39638845750828
H           1.92322402271959    0.01162539658607   -0.52394459726539
N          -1.00423582791497   -2.64844344462690    0.96133991530844
H          -1.48598130797159   -3.23740316535241    1.62973735855592
H          -1.46443970349561   -2.75432800814137    0.06574811135747
H          -1.14460376064072   -1.68179211959130    1.23728342266866
