    26
        -50.43974036  Gyration_radius:  2.4300756876 Dipole_moment: 3.747
 S          -0.51516170700861   -0.32126141601705   -1.69913857604070
O          -0.04055461677409    1.00780358349587   -1.32412990718861
O          -1.11132215993737   -1.04525833014390   -0.60549591471167
O           0.53653899713227   -1.06799959107973   -2.37769995481722
O          -1.65217729462474   -0.09724440212718   -2.78207250322259
H          -1.16919240027499    0.03089028657380   -3.59314141226558
H           1.70591713697479   -1.20137210679926   -1.36450930692544
O           2.42230067077676   -1.19018414883559   -0.66087828789639
H           3.25627348201150   -1.20803601147756   -1.13508777171321
O           0.83454772674297   -0.16243849775229    2.63734563238940
H           1.51133496196443   -0.34860716335171    3.28937128119061
O          -0.61051961674189    2.00980379657559    1.60930980852839
H          -1.34932419348946    1.89753525173256    0.98366031103706
H          -0.77050479826339    1.38436592340591    2.31923463787307
O           0.48981089154720   -2.27569288180482    1.13378968916476
H          -0.22296787836295   -1.95533114619314    0.54507899960575
H           1.27786468705605   -2.31205980168409    0.57976064188350
H           0.62682368056627   -1.02028707830317    2.17765132214740
O           1.65453088324341    0.98198768727439    0.49189044521952
H           2.07593387890041    0.13659243592074    0.12154474009867
H           0.87487924146456    1.17025324029340   -0.18089489341257
H           1.21415761015419    0.74816433349660    1.39226704079897
N          -2.67196786957045    1.33529387247079   -0.15622104112742
H          -2.34240874409252    1.80598506051809   -0.98982137896704
H          -3.68408864873939    1.31882703551772   -0.18813319648053
H          -2.34072396065114    0.37827006831158   -0.22368040517755
