    26
        -50.47250316  Gyration_radius:  2.48729565441 Dipole_moment: 2.881
 S          -1.34588905197797    1.82533661676024    0.02847200304766
O          -0.79507624888005    2.05369059149635   -1.30189310482797
O          -0.33596561087273    1.36478220963848    0.96205507592603
O          -2.52605949648109    0.98307231697247   -0.00832096624257
O          -1.82811945183392    3.23666797876262    0.56248294602260
H          -2.57633537675889    3.39977358438393   -0.00148813078902
H          -2.18410838767577   -0.54242177784109   -0.31637128924444
O          -1.94739201434251   -1.49810392006928   -0.44660441236196
H          -2.72447969086504   -1.91289689491187   -0.82394479814221
O           1.70476934899215   -1.80925262532937    1.18800329378792
H           2.08925921675402   -2.45230573495730    1.78393869376494
O           2.30763932842757    0.84952789580592    0.78227879616640
H           1.43861697845821    1.19815222046661    1.05449780444060
H           2.28381501697666   -0.09427680188003    1.02465610739308
O          -0.66430189084147   -1.08003965577913    1.98807704654919
H          -1.25538542998196   -1.44851017987861    1.31512953070137
H           0.81240427962084   -1.56580348175466    1.57136985215753
H          -0.61277948635167   -0.12740150474622    1.77126160845482
O           0.61195974085871   -1.84833710913810   -1.33965977026473
H          -0.33179064441572   -1.78957985622181   -1.09816610069045
H           1.07954143776526   -0.36215147879689   -1.68550905497116
H           1.08225001324270   -2.00460378197663   -0.50084565866757
N           1.37597114581185    0.65787890546834   -1.66758238833779
H           1.91992675746826    0.90686709907898   -2.48548329540958
H           1.91838566098726    0.80305891768364   -0.76300510304708
H           0.50314385591514    1.25687643676337   -1.59334868541595
