    26
        -50.43973920  Gyration_radius:  2.42960425348 Dipole_moment: 3.768
 S          -0.65044212098322   -1.60918794253330   -0.48002915502266
O           0.75658363752943   -1.29807977708908   -0.71542677364059
O          -1.49959645043432   -0.44519576628491   -0.47515762637192
O          -0.80094428478611   -2.43526774429789    0.71127648221977
O          -1.11442351435201   -2.51906384159650   -1.69392759679689
H          -0.84575060588636   -3.39532923282308   -1.43416449452474
H          -0.24762675274381   -1.59702652702373    1.89684857714003
O           0.46291588499425    2.49582584434828    1.11118197023032
H           0.69278259527306    3.05141627653136    1.85705985068893
O           0.17606432386886   -1.00132501593071    2.58511966260280
H           0.55588370439369   -1.58840440101624    3.24224191586075
O           1.51954314466145    1.68864333058695   -1.35984279520196
H           0.94701004479178    2.40847320093916   -1.08627277537328
H           1.00563872638795    1.17017199848701   -2.00548177044453
O           1.72105079322754    0.26464906365586    0.95748997693010
H           1.43977556172804   -0.29174813735762    0.11636042438431
H           1.35469434074223    1.21569142045140    0.81490677024406
H           1.18774785021719   -0.16721293594866    1.70462023368000
O          -1.62159715507598    1.04179203706412    1.73286354368603
H          -1.28483388316522    0.38269677813701    2.35053799649266
H          -0.40801800702233    2.06429420343526    1.32471468175618
H          -1.75076773276511    0.56118403129232    0.89049189742901
N          -0.23032722866406    0.22059467494496   -2.97504582645857
H           0.28395915335002   -0.64989961067717   -3.02882193730629
H          -0.76119128031380    0.32130099720055   -3.83164131434390
H          -0.88813075495262    0.11100704551047   -2.20990192784181
