    26
        -50.43974004  Gyration_radius:  2.43043086975 Dipole_moment: 3.714
 S          -0.64559257530050    1.68161293109729   -0.13911439084509
O          -1.53540208208147    0.57524613816010    0.10479755451186
O           0.56074434815570    1.30553670886012   -0.87151244535546
O          -0.30128909660669    2.42001065898038    1.06917003093854
O          -1.42417675131872    2.70622176464992   -1.06592747760541
H          -0.96878634695987    3.53080843507256   -0.92367272085819
H           0.55601753125509    1.46414840431030    1.94264252242066
O           1.14105171043355    0.79368502098498    2.40803056600333
H           1.77121863412309    1.30529722362248    2.91979507453079
O           0.61387484873548   -2.58933687045511    0.75672973954562
H           1.04195897107511   -3.20963121961305    1.34811107265614
O           0.81606370925028   -1.67324257631419   -1.88515150358216
H           0.15044858866653   -1.08067935463889   -2.27995169274572
H           0.32141118087577   -2.37942853463949   -1.46405281909929
O          -1.00421724865751   -1.06530647528197    2.13786720677988
H          -1.37829032156644   -0.51587196735747    1.42006824231370
H          -0.09209793482210   -2.12407899146321    1.28136197999009
H          -0.42202290776766   -0.47561156524496    2.63040875710862
O           1.91646748509128   -0.42971186728777    0.27760365709953
H           1.71260702425760   -0.02687569675250    1.18620614150290
H           1.44855125128190   -1.34435501627638    0.22438693190242
H           1.40609201315134    0.20471028272725   -0.38119820074783
N          -1.26696238703051    0.00144666130719   -2.70685036257608
H          -1.59742562977869    0.10854960741872   -1.75313952273638
H          -2.07522455532110   -0.02547648834108   -3.31654139646069
H          -0.74501947914794    0.84233278647284   -2.92006693467540
