    26
        -50.43974050  Gyration_radius:  2.43031593598 Dipole_moment: 3.731
 S          -0.14412479294694    0.38770531025785    1.75760805875252
O           0.89752855020380    0.98440573443054    0.96101452841664
O          -0.57540423433185   -0.91721009878720    1.26424481965285
O          -1.29069780525864    1.26523467707370    1.95547447152220
O           0.46195674645383    0.13756568794804    3.20191684748448
H          -0.30543850040981    0.10303889024292    3.76544607933434
H          -1.96245855024836    1.43230048954784    0.56515816894747
O           0.26308559742541    0.05946898868964   -2.75484943085798
H          -0.08469682755009    0.25907350651118   -3.62493160623886
O          -2.35185221915612    1.43673770367783   -0.36043554488491
H          -3.29694078035593    1.55796981488559   -0.24719874079813
O           0.96077489792635   -2.16241946756626   -1.19191893191067
H           1.41119852595769   -2.07061724092071   -0.33242120683100
H           1.44499574940547   -1.60281047542054   -1.80274112563874
O          -1.43422633624425   -0.86473900769754   -1.06605404790496
H          -1.87367560539773    0.03659525295261   -0.91138785391741
H          -0.66036025409063   -0.73037230222340   -1.73085727723526
H          -0.99616944684745   -1.07490856447956   -0.13856600622751
O           0.22199453724221    2.23133313253963   -1.29584442813215
H           0.61747736051333    1.89085893052104   -0.46832098247902
H           0.36657225373606    0.92503291972233   -2.27502145335934
H          -0.70981732466056    2.37084984042636   -1.09191689503812
N           2.25335321073339   -1.54661108378885    1.21004298856913
H           1.59137318485413   -1.93394078796167    1.87090134994022
H           2.01883678649930   -0.56323284395619    1.11958399504588
H           3.17671524651907   -1.61130902662133    1.62107422378634
