    26
        -50.43974032  Gyration_radius:  2.4304239105 Dipole_moment: 3.720
 S          -0.44507974319635    0.06340670569449   -1.74993817872161
O          -0.81836822401689   -1.07106818261392   -0.94424725413110
O           0.76447540924919    0.73436070036567   -1.28167126089561
O          -1.52697261112643    1.02348587162227   -1.92777775170162
O          -0.11314694131832   -0.48724989513923   -3.19979368543961
H          -0.22405024904807    0.27408414550043   -3.76156543602632
H          -1.79075424301306    1.65347553074691   -0.53298218719243
O           0.05027995805223   -0.25917278229216    2.75584187849753
H          -0.19499529961190    0.04764914010839    3.62965856477323
O          -1.85058232592749    2.03656608608553    0.39331196489075
H          -2.15374893534018    2.94043117994674    0.28458129483961
O           2.32934662670900   -0.52785983678413    1.14325204508039
H           1.88550762215257   -1.10687046912386    1.76657445201465
H           2.30552219725315   -0.99115698371578    0.28600795184495
O           0.59842075903160    1.57728729846287    1.04891703180425
H          -0.37299275053084    1.83654655164212    0.91384076879270
H           0.62777537968042    0.79440653719596    1.71616698833515
H           0.86839878931321    1.18321476365024    0.11690144912810
O          -2.11856232058045   -0.63836689027124    1.34214852482063
H          -2.43716006330125    0.24927617740083    1.14221690072819
H          -1.72783601204559   -0.96465208966457    0.50670789225950
H          -0.78905904673843   -0.52780242672387    2.29363698050127
N           1.91738720735134   -1.92640574344922   -1.24296079072394
H           2.14312887180927   -2.82621081311568   -1.64929171346462
H           2.16352359718616   -1.21123854327737   -1.91594423635431
H           0.90954233800576   -1.87613603223045   -1.13359218365473
