    26
        -50.43974032  Gyration_radius:  2.42996614624 Dipole_moment: 3.744
 S          -0.97352725166579   -1.12791400646100    1.01606437172291
O           0.30043573636878   -0.61656942191205    1.51398450428881
O          -1.03757492454049   -1.20326037735556   -0.42120992904892
O          -2.08548120522198   -0.39117949403732    1.60343865063848
O          -1.10089563044377   -2.61080560347724    1.56451647424887
H          -1.41449645061632   -2.49506632881498    2.45658409914090
H          -1.91263221686015    1.08999956146490    1.17083237095466
O          -1.68803998449603    2.02525026667051    0.88201969881394
H          -2.03432615558854    2.60163195228065    1.56653500469174
O           0.92076698366236    1.81700768380074   -1.87666514051114
H           0.95471104927374    2.70441591625826   -2.23609702874568
O           2.58256837399535   -0.03244859406241   -0.57783210621106
H           2.30639704231176   -0.95101266972416   -0.40515791832527
H           2.37141430259638    0.13636993207518   -1.49850890019887
O           0.85404506621098    1.65863217403718    0.68355855573476
H          -0.11745786741141    1.94492984973591    0.74428815088883
H           0.82811636314765    0.66690148387130    1.01780685151988
H           1.11263043645681    1.62452950854293   -0.31206227053453
O          -1.57052930329636    1.02309014665646   -1.78582272832595
H          -1.96159328445102    1.52764850391950   -1.06348315394473
H          -0.01356096215512    1.49211228379565   -1.98570453913499
H          -1.45150186047410    0.11860334821753   -1.43224726194646
N           1.48587412597307   -2.58457722291985   -0.25113906934545
H           1.47923712300035   -2.63868435783498    0.75983106999018
H           1.60095340424188   -3.52384408001639   -0.61200791038043
H           0.56446708998636   -2.25576044470727   -0.52152182597362
