    26
        -50.47200631  Gyration_radius:  2.49868268399 Dipole_moment: 3.920
 S          -1.07294449249914   -1.66563844520611   -0.94771256630958
O          -0.60414394980206   -0.79423323993695   -2.02350490688326
O          -1.57834412217985   -0.91920955321324    0.18375882069246
O          -0.08233944001505   -2.66536152414795   -0.59794229143527
O          -2.31146518577145   -2.45886015430009   -1.53708168052340
H          -1.89239164443131   -3.06495173503372   -2.13874329247399
H           1.14746215991805   -2.07878507587990    0.22785232309670
O           0.36095836794710    2.11525292576807    2.35933514665894
H           1.13836716587395    2.24174412088073    2.90450712917174
O           1.89656613399613   -1.62593366715429    0.69945060747335
H           2.56691296003215   -2.29782754734284    0.83412438263878
O          -1.96459806714810    1.29755984945620   -1.18927687508527
H          -2.20475540535314    0.70693660974899   -0.45556053422265
H          -1.53668710306520    0.66947210360040   -1.80437009837128
O          -0.02206713752502   -0.46938361810030    2.32696176877582
H          -0.71835377046320   -0.65944316695141    1.67053060439488
H           0.77620084838862   -0.87531566852375    1.95359869021276
H           0.13628647756992    1.14547340758078    2.42564605837961
O           1.67632972715631    0.30065598839248   -1.22391876545218
H           1.94481505372506   -0.31033302475071   -0.51461124329539
H           0.91651616270980   -0.14065828456815   -1.66138038708605
H           0.95537148117950    1.58206355400778   -0.65860774234688
N           0.29315406045693    2.33610879053358   -0.29559642986411
H           0.32054933898098    2.33999680545488    0.75604382799573
H          -0.67843002053858    2.04428915838268   -0.62424664477763
H           0.53703041085365    3.24638137129974   -0.66925590136379
