    26
        -50.47304680  Gyration_radius:  2.48581664341 Dipole_moment: 2.172
 S           2.08226839132481   -0.38926403482599   -0.11722841385399
O           1.65698529195414   -0.27159117906447   -1.50721593486876
O           1.08755095384128   -1.04902773992766    0.70714400768366
O           2.54331492855538    0.87314075758262    0.42293075966542
O           3.33986047501984   -1.35516029437574   -0.12183269760172
H           4.02187089235363   -0.79977157014639   -0.48446863652163
H           1.36546051085408    1.91779927269108    0.73855904655468
O          -2.79080677803204   -0.48854848088258    1.42437581182896
H          -2.90681412671416   -1.32484238914227    1.87787277214729
O           0.57356089125802    2.50228697453249    0.86205978177814
H           0.91461265038876    3.37625366713628    1.05852550776669
O          -0.05526517942096   -2.28597912984138   -1.29444653264334
H           0.56927896125458   -1.73721131302993   -1.79960102023398
H           0.27844273465660   -2.15586749745299   -0.38554931662473
O          -0.50431519032440    0.40207780588754    2.30898779390341
H           0.11882230184932   -0.19754456015631    1.85516154081408
H          -0.27866396808252    1.28428210432966    1.97719089093814
H          -1.97344214350485   -0.08029385564221    1.82733352572477
O          -0.34622185182013    1.47005950532981   -1.49007993510494
H           0.44912298638489    0.91106041971716   -1.62146355543389
H          -1.44616640759092    0.36413613049661   -1.27372159214979
H          -0.16432198015207    1.98419736771713   -0.68303157861905
N          -2.02180312703036   -0.52162760531083   -1.11993740180040
H          -2.39755967732507   -0.52080400348778   -0.13262712339756
H          -1.33956506186323   -1.32867549062433   -1.23427496200816
H          -2.77620648784249   -0.57908485151170   -1.79466273793562
