    26
        -50.47250319  Gyration_radius:  2.48730161404 Dipole_moment: 2.882
 S           0.84151470948903    0.47311683467824   -2.05230459656111
O           1.15953083144545   -0.94947882502559   -2.07278082723587
O           1.09443776467947    1.06689966867891   -0.75344511135171
O          -0.49034863897994    0.74026576096077   -2.56065811542673
O           1.84576538427755    1.17164965345460   -3.05886422606612
H           1.52343896062483    0.84788097999552   -3.89299304693043
H          -1.63683344981061    0.29125229592067   -1.54920427156746
O          -2.33567528625172    0.06395978145556   -0.88122976667166
H          -3.13697622681630   -0.09576965060508   -1.38193836690511
O          -0.49333611215270    0.59398065832290    2.64482876971490
H          -0.76289708795931    1.03435414026958    3.45100967731081
O           2.01695089376000    0.13143365314394    1.60500347161112
H           1.23688680682083    0.33615807336386    2.15244743975044
H           1.89116202974476    0.65009916790241    0.78896509778492
O          -1.40314576870133   -1.52445559065230    1.13791230767221
H           0.05369938826206   -1.93317455205179    0.63042716896208
H          -1.18797805179239   -0.85806171936277    1.81522794876322
H          -1.81717449306456   -1.02533580929634    0.40859623902678
O          -1.01706518404105    2.05380897708079    0.55210860022243
H          -1.71858113302465    1.56190196236735    0.10065714294920
H          -0.70713211951076    1.22126092811839    1.89430737374166
H          -0.21220865918282    1.86570611187950    0.02860413355013
N           1.07168252628073   -1.96194395855885    0.32786054436350
H           1.46696101887370   -2.89021591198576    0.42236901298550
H           1.58718029234337   -1.24212910580384    0.91917294825262
H           1.13014161468555   -1.62316352425055   -0.67607954794455
