    26
        -50.47304695  Gyration_radius:  2.48597276217 Dipole_moment: 2.161
 S          -0.83730242727117    0.34681415026957    1.91888852795301
O           0.31338734158702   -0.51139069139903    2.17578461577686
O          -1.52059153183836   -0.00528287228251    0.68859332371241
O          -0.50479062677925    1.75308929138315    2.01960391994638
O          -1.87487109573334    0.05305344245728    3.08153203033293
H          -1.47805142179929    0.49543556614294    3.82441550413243
H           0.35033686119748    2.31330220225748    0.78131490815263
O          -0.40653851815385   -0.48599624118914   -3.10727103006767
H          -1.23349380376942   -0.88538786678287   -3.38135173474112
O           0.90608036379169    2.55127792373638   -0.00511432704089
H           1.24575928941941    3.43141070540045    0.16429558344128
O          -0.63290127082772   -2.46525145967606    0.65222360704957
H          -0.12320940783862   -2.13759534866983    1.41332205683185
H          -1.26473933347268   -1.73111147598666    0.52407901981500
O           2.09596316296438    0.11617343068206    0.31115738786137
H           1.55932680682359   -0.95343593967872   -0.71270501135906
H           1.83710259010996    1.02544353573866    0.07700283889377
H           1.56084691395113   -0.10612142543771    1.10268034286191
O          -1.13180764581366    1.45906616821133   -1.52773007354540
H          -1.42236838992758    0.96226058202411   -0.73880305535009
H          -0.39016953961179    1.99951155952636   -1.21580455792833
H          -0.66456843427000    0.32599362910297   -2.58660266157923
N           1.04628829489143   -1.71798202614847   -1.25287089072843
H           0.49929240081226   -1.27509237352953   -2.04046798784238
H           0.36967439241154   -2.15308870931054   -0.55776251321903
H           1.70134502914301   -2.40509576688231   -1.60840982337599
