    26
        -50.46194786  Gyration_radius:  2.51168616561 Dipole_moment: 4.767
 S           0.30101189511284   -1.79662371882978   -1.08867614082521
O           1.15072158454897   -1.41111383939913    0.01750666390683
O           0.50376068604652   -0.95203835481473   -2.26118054463067
O          -1.10531454464714   -1.90191864501475   -0.74237876191355
O           0.76577120659993   -3.25517964270441   -1.49935715991811
H           0.10982370863830   -3.54691844883512   -2.12567177792247
H          -1.47192785873594   -0.27752794309291   -0.97710243166757
O          -1.68189942636462    0.67100808132266   -1.09547303115297
H          -1.74419108359437    0.79763047933804   -2.04411617520702
O           0.52867424461839    2.03349330217497    2.28194207101289
H           0.00820712377000    2.40692350352333    2.99379302734377
O          -2.38137370916012   -0.90280614854606    1.46403354020310
H          -2.03844560035914   -1.46956879753569    0.75361137258614
H          -2.66653540448852   -0.09628274998285    1.02604727527009
O           0.15986238123281    2.49503002462449   -0.28571802308596
H           1.26793112296005    1.63161336753789   -0.75613853303283
H          -0.61522694853948    1.94040383154125   -0.50730113343724
H           0.26044665071724    2.44289350670879    0.69615006128897
O           0.14989114239676   -0.56196341596566    2.41150685301869
H           0.58441893174508   -0.97653879573044    1.64857764930392
H           0.44384963400373    1.04675507729446    2.37174106478175
H          -0.80590003015983   -0.70942548605457    2.27005487059082
N           1.95023095825437    0.82852955402089   -1.07071244293641
H           1.45196430777956    0.25587802200718   -1.80468065604700
H           2.01828953697978    0.13822458706494   -0.30402426152396
H           2.85595946065152    1.16952261929340   -1.37243336598334
