    26
        -50.47250312  Gyration_radius:  2.48738954551 Dipole_moment: 2.884
 S           1.57290977638617    1.29530437868761   -0.99663318135370
O           0.44498194857073    1.77905175828210   -1.78338694834290
O           1.50990006635716   -0.13773355756821   -0.78196032905096
O           1.74928346439987    2.05582554897095    0.22575468746001
O           2.87077390824759    1.55363295782568   -1.86753750327538
H           2.92402107985402    2.50272189158749   -1.83844736494618
H           0.63028980259381    1.74170569465286    1.31588316703071
O          -0.03678402355252    1.48717033947719    2.00610196106596
H          -0.10805957337046    2.24030954844967    2.59434573138120
O          -0.87433238826886   -2.34374950436612    1.15450775535805
H          -0.94616276332005   -3.12377546194136    1.70487003629498
O          -0.21583532741385   -2.08238416751864   -1.50906631796048
H           0.58903201943734   -1.55028009152240   -1.36815497320072
H          -0.47626815754676   -2.38017946089935   -0.61822572706170
O           1.25548082747698   -0.96542854043249    1.74555137847355
H          -0.02821925147026   -1.88251617362005    1.42608000516715
H           1.52453567141571   -0.70296068871574    0.84230209700735
H           0.90028635694053   -0.15384955552802    2.13681682548148
O          -2.14990591708192    0.09118423089282    0.97941055003947
H          -1.86214295453396   -0.82596167192795    1.13804256602543
H          -1.46691768115815    0.65043163643284    1.39568494936248
H          -1.93246336761056    0.21699264879150   -0.59654233973400
N          -1.58777416271321    0.15722643502343   -1.59971049980138
H          -2.33442296639804    0.31997428260662   -2.26519765925832
H          -1.14730288330429   -0.80518813587563   -1.71509728372832
H          -0.80490351393794    0.86247567823689   -1.72539157243539
