    26
        -50.45582087  Gyration_radius:  2.57956770086 Dipole_moment: 3.692
 S           0.06592961762879    1.00110519846939    2.16430832697457
O          -0.36270931733827   -0.23364553834431    2.81796720506784
O          -0.76305595089130    1.31551010060457    1.01657954954895
O           1.48720559161703    1.00450354242573    1.88288704344200
O          -0.18020929174780    2.17090917057328    3.20987463175715
H           0.51908658756170    2.05752206972112    3.84687484441453
H           1.73427924132425   -0.12340214504357    0.80278006429067
O           1.90940109636510   -0.85119909068097    0.14681689483608
H           2.64088662929521   -1.35199517282324    0.51306674279026
O          -1.34980026323557   -0.49084029253579   -2.48166571227407
H          -1.46452054523688   -0.41045941521846   -3.42828641961036
O           2.18644761357118    0.76087192608645   -2.06089972896154
H           2.17348461658197    0.15817529827492   -2.80625281094412
H           2.17840901710804    0.20998506409197   -1.25701227073942
O          -0.33343831810959    1.77000886979980   -1.63362539025080
H          -1.02097017083777    0.39669180740663   -2.16918607587235
H          -0.45994015456751    1.77020114994931   -0.67002820780966
H           0.61924579403791    1.62239095895039   -1.78093810651275
O          -0.29234176222221   -2.21399563306969   -0.75719092536998
H          -1.30035903085235   -1.64729267348423    0.24886956796303
H          -0.61012972412758   -1.69784845204124   -1.52923455643598
H           0.54051127972898   -1.79114928190748   -0.47473007369282
N          -1.88556814088044   -1.04073853258697    0.92671087848342
H          -2.83372298940862   -1.38037150416649    1.04167496835342
H          -1.84724113470234   -0.06300197409539    0.58874948164189
H          -1.35088027056467   -0.94193544029769    1.84189006891986
