    26
        -50.45582073  Gyration_radius:  2.58011989463 Dipole_moment: 3.679
 S           1.64767964767915   -0.93883957731941   -1.44885833826041
O           1.01333795697334    0.36496392172143   -1.47926100997366
O           0.74113383711747   -1.99124919185632   -1.90308891548700
O           2.26739548024733   -1.26272709627936   -0.17987129928421
O           2.82610621578183   -0.87274004403077   -2.51162517917141
H           3.34832630478957   -1.64611324078400   -2.31967410832567
H           1.10993494003525   -1.27692548833167    0.89694689295695
O          -2.04455561006479    1.94072042483756    0.53226080151446
H          -2.41386856451284    2.69781008030463    0.98622731052500
O           0.38750543598653   -1.32073556907946    1.58027824900324
H           0.52473956186259   -2.15048899516156    2.04141603493599
O           0.89823912717522    1.11214846687759    2.75103517253818
H           0.78736833868088    0.21438991528745    2.38837260218611
H           0.14043596310792    1.27534252644626    3.31498887182577
O           0.53522642957337    2.34863537175544    0.32445422072044
H           0.85567801362357    2.01407953363251    1.18267221486784
H           0.84996115668619    1.71775151199761   -0.34439558368776
H          -1.07605602761878    2.14080847384266    0.40869962315251
O          -2.13717081673814   -0.70976482032342    0.70054528470165
H          -1.27615782264426   -0.95595495454642    1.08825966691087
H          -2.21118498720697    0.26377945484688    0.80102236303794
H          -1.82618094405756   -0.69994348759626   -0.80032227890817
N          -1.39739903920865   -0.59130690887437   -1.78733502709233
H          -0.68888067410740   -1.37157965866880   -1.93740811126701
H          -0.76359185178433    0.22692621562144   -1.76808698222546
H          -2.09802207138460   -0.52898686430222   -2.51725248514529
