    26
        -50.46194777  Gyration_radius:  2.51152460964 Dipole_moment: 4.784
 S          -1.02308642407230    1.84926129511765    0.18895536005835
O          -1.42505835335500    0.66354374723700    0.91431193115133
O          -1.30091340630170    1.74358527108581   -1.23983190397924
O           0.34849196989733    2.25562269765338    0.43817874590756
O          -1.93883032199948    3.02035598161693    0.73862579433808
H          -1.57360284733525    3.81054421743906    0.35153333457270
H           1.04457104318006    1.25892748782235   -0.72392466321663
O           1.45307182520961    0.66565723222389   -1.38652288925932
H           1.29745784971428    1.08960554634346   -2.23259224917807
O           0.61067120862644   -2.95883782915960    0.69405083870821
H           1.36515145020922   -3.44826371636848    1.02291941663567
O           2.36938104105283    0.78343962578789    1.55398717521849
H           2.72446922499523    0.49516294851416    0.70862671361510
H           1.71955815468124    1.47120234761217    1.33464483900522
O           0.34956994879980   -0.88969107727601    2.28956514391959
H          -0.36025925486696   -0.32474254022946    1.94342482412607
H           0.46848979379629   -2.21367627573776    1.33707715702966
H           1.16456612319667   -0.35814570712200    2.19683004356735
O           0.41975336933492   -1.82898980922434   -1.67853841515001
H           0.94132538559830   -1.00668342415223   -1.58269480755766
H           0.56476700514971   -2.34252582276607   -0.84673347793318
H          -0.95574171363815   -1.31373214548794   -1.48305370698760
N          -1.87856830203833   -0.77533009527320   -1.22293413501878
H          -2.71250953465637   -1.20311187082597   -1.60923065159184
H          -1.75223986913350    0.23274635204980   -1.51177865493905
H          -1.92048536613790   -0.67592442692898   -0.19489576313084
