    26
        -50.46194792  Gyration_radius:  2.51157258484 Dipole_moment: 4.778
 S           0.52849306808211    1.22257535802633   -1.65169941022852
O          -0.62815610668624    0.35317465167545   -1.67022985552977
O           1.78156365690747    0.47584038444752   -1.69348537933612
O           0.51971384917492    2.19206061399331   -0.57073567426532
O           0.45896851951790    2.05844978944469   -2.99661776351413
H           1.14385846511693    2.71438226213536   -2.90545999444844
H           1.21074702102590    1.18036278421083    0.58202541693885
O          -1.79879037211812   -1.97120446909470    1.57826387727764
H          -2.26463197630040   -1.95979134806697    2.41473608433703
O           1.59520030270647    0.58747934654283    1.25912859899597
H           2.53316087673494    0.55608694286015    1.06152691555016
O          -1.00929203172275    2.17586761827908    1.70054684669836
H          -0.33748083676420    1.74826320214632    2.23855112669493
H          -0.55850204808438    2.41419239458468    0.87384918156994
O          -2.43651191533940    0.27290767270699    0.37373522845270
H          -1.92236444379350    0.33638225681481   -0.44747017479765
H          -2.09311855134282   -1.15527573945189    1.09162425621021
H          -2.10456179472476    0.99909286833309    0.93747188598176
O           0.81708591781599   -2.01498552146397    1.26916864739200
H           1.08167421172020   -1.08727211655326    1.43238040186253
H          -0.14419026030759   -2.06754544391189    1.49273837615108
H           0.78868536072179   -2.04301531846834   -0.21223242609278
N           0.72962373204869   -1.85053167364686   -1.29320041714784
H           1.40495580905355   -1.06962760397533   -1.51580790367623
H          -0.17203896560197   -1.38630072892031   -1.49373747281621
H           0.87590849214472   -2.68156818263989   -1.85507038222413
