    26
        -50.46742657  Gyration_radius:  2.40211461755 Dipole_moment: 4.780
 S           0.00949154505986   -0.48322241930090   -1.65209435830645
O          -1.17842827322828   -0.68752273147386   -0.63636522590350
O           1.21144557980843   -0.26491174261458   -0.84753787278377
O          -0.29486714666540    0.64801863843871   -2.49391570224861
O           0.05813877111676   -1.77510582152664   -2.33244824460822
H          -0.17413266878742   -2.66121124443197   -1.22400762167897
H          -0.22859960523418    2.04766173071031   -1.70132467742741
O          -0.26819109222215    2.86546950853621   -1.13865153084968
H          -0.57902789956720    3.56355282844268   -1.71708302086705
O           0.21955864891509    0.78096974614085    2.44339188892200
H           0.45885483890531    1.09146853786279    3.31720758344352
O           0.95999170121687   -1.66308351571415    1.32051372769399
H           0.54431625748936   -0.98984565660534    1.88575742227096
H           1.24297637369153   -1.14788649819929    0.52600721334069
O           1.68419662822453    1.91635618804218    0.59182637128547
H           1.71529449906652    1.12705946255451    0.01393567986055
H           1.14659926544876    2.54648537013900    0.09128277543986
H           0.84736808863521    1.22784310218223    1.80739100849293
O          -1.74030278894813    1.45458686416159    0.65143337341865
H          -1.45102002958250    0.16855573906333   -0.17601573634082
H          -1.16882050953590    1.28193016364940    1.42156496141101
H          -1.28410295227132    2.12442692541268    0.10632016854792
N          -0.38934931407422   -3.20606360053256   -0.28496408566685
H          -0.06378688465368   -4.16683697194779   -0.32374357434256
H          -1.39287414392009   -3.15757785273360   -0.13342435735959
H           0.11527111109740   -2.64111674022862    0.48494382426305
