    26
        -50.46742661  Gyration_radius:  2.40206835796 Dipole_moment: 4.779
 S           0.44357372952460    0.41749147941244   -1.60976869743521
O          -0.61819431814194   -0.67215308994152   -1.19742946734131
O           1.28520433160258    0.64315239066189   -0.43478880608358
O          -0.25682382041480    1.61189067842991   -2.01475186271754
O           1.18683975370837   -0.26196765579257   -2.66799423839092
H           1.27114181505398   -1.58776531099317   -2.11545791626294
H          -0.96575511737225    2.36541649987573   -0.78168652645921
O          -1.46007250410779    2.72917766032316   -0.00038171518318
H          -1.99006156741662    3.45098643250043   -0.34189416822827
O          -0.48469838045919   -0.47893001742235    2.48233305390719
H          -0.53488375931747   -0.56572590585038    3.43480415233595
O           1.46479209492295   -1.60784105604754    0.83697919984980
H           1.56359469100626   -0.71033297926688    0.43483971722616
H           0.71180313001989   -1.49827529372354    1.44242471442101
O           0.47708426147446    1.85566830263053    1.78546174464287
H          -0.07271716574446    0.41405710387610    2.30505440798968
H           0.95266127824717    1.51892040791892    0.99913343363514
H          -0.22966686147932    2.40032672000175    1.41055733305844
O          -2.28908645875120    0.20177757707648    0.53669786093660
H          -1.80477880683934   -0.09756800240305    1.32750890423859
H          -2.14501254013377    1.16513235909179    0.46556801285311
H          -1.32093250161882   -0.31421724564408   -0.56718643723533
N           1.22760255711265   -2.55329705710411   -1.57690480084989
H           0.31309071385356   -2.95694382403276   -1.75891303161274
H           1.30027585228031   -2.29093713595419   -0.53143632586114
H           1.97501960298995   -3.17804304762210   -1.86276853142980
