    26
        -50.46185036  Gyration_radius:  2.40103520105 Dipole_moment: 4.318
 S          -0.02244750986479    1.05928388576271    1.48097200755652
O           1.38525719042993    0.95960292263336    1.11844646665198
O          -0.81042892055658    1.56028175643772    0.35783478570620
O          -0.54597909435694   -0.16561636687619    2.03296442394493
O          -0.12348843342186    2.15642213456989    2.60989718829871
H           0.21786773226382    2.92269048584906    2.16246163310554
O           1.52383134168809   -1.65149681560096    0.96965626548264
H           1.58194187003520   -0.66923083877283    1.02971943990156
H           1.05987256468196   -1.90885847035187    1.77214020803793
O          -0.06886750232969    0.30566175772675   -1.85034923275301
H           0.91255759381405    0.46084096887237   -1.91744291569367
H          -0.35260414214601    0.85225452183631   -1.08386091727792
O          -3.08523329513459    0.52278317747170   -0.62144404977588
H          -2.37223018601362    1.03627850382326   -0.19486854631699
H          -2.91204624737457    0.56849370520703   -1.56453329352762
O          -0.20419311897195   -1.99394474653405   -0.89203089718930
H           0.55348084081409   -1.96026939038225   -0.20810156347284
H          -0.16491421977945   -1.05535970210372   -1.39437535070464
O          -2.17344691490325   -1.65836108281804    0.59024998325057
H          -1.10163774730166   -1.95576291972431   -0.30249638625008
H          -1.68877959507232   -1.16605363410585    1.28921498535511
H          -2.72121650253798   -0.97228543404839    0.14253594553725
N           2.54466478362259    0.65290083166830   -1.52070256771012
H           3.09625481220829    1.39263368522221   -1.93558573308769
H           3.10386805993776   -0.19102215002618   -1.52257715216585
H           2.36791665035314    0.89813321442019   -0.54772470690918
