    26
        -50.45882329  Gyration_radius:  2.49445786135 Dipole_moment: 4.330
 S          -1.54792166623753   -0.84070972976097   -1.20364881211971
O          -1.26295204008252    0.58410166302045   -1.09815021320201
O          -0.65692115940913   -1.49154583991861   -2.14306342574205
O          -1.61261804064342   -1.49186903044586    0.08951765164981
O          -3.00469780890249   -0.95191185160786   -1.81234574084930
H          -2.87025032138739   -0.55808810941157   -2.66688594840125
O           0.10920306207140    0.76770997016564    2.44812495318885
H           0.52393961066681   -0.05164828695758    2.08213240045188
H          -0.84818823558744    0.54638082738335    2.52448966908219
O           0.88069339818492   -1.35900459748452    1.07500460626852
H          -0.02430212223934   -1.57464634608364    0.78317077004006
H           1.39165467403463   -1.27152904792847    0.25454186412729
O           1.82006760222505   -1.09302801302263   -1.51383361907128
H           2.28910667063951   -1.83634634713988   -1.89744092420656
H           0.87632203254119   -1.20031796280451   -1.80383119110221
O          -2.40382822379627   -0.04653885159600    2.15418596599871
H          -2.83080354294010   -0.66739155059565    2.74651989376453
H          -2.19627203772292   -0.55223226823243    1.33780096070502
O           0.11414871682397    2.11254849101372    0.36454089875438
H           0.10843423013141    1.61493367954277    1.32054215881907
H           1.07659625117077    1.94633886197308   -0.03601197076021
H          -0.50767587757093    1.55866412420268   -0.21589666867585
N           2.41806026019684    1.56051878434242   -0.59365966575086
H           2.76865410987468    2.18825421914834   -1.30501536541096
H           2.26768234482457    0.64436087449648   -1.01786364697429
H           3.12186810313359    1.46299634770227    0.12707539941583
