    26
        -50.46009919  Gyration_radius:  2.46624519439 Dipole_moment: 0.821
 S           1.26805763652216    0.36221264787705    0.16958730913556
O           1.54705153201958   -0.36469330920847   -1.05880571241284
O           0.24103051618993    1.37852143745060   -0.03304180065847
O           0.88708928865034   -0.54506141840423    1.25264471722429
O           2.56845367716971    1.07068775674233    0.63941349815807
H           2.74710181599953    1.66102921449456   -0.13643147290335
O          -1.09990856700536   -0.05317270665150    2.90381174158979
H          -0.86033860709932    0.58591865698159    3.57591762795942
H          -0.28663146126310   -0.20154599884034    2.36597905023548
O          -0.76588094610140   -2.56576302403166    1.12326480479354
H          -1.13085308995818   -2.49773726409748    2.01051049891788
H          -0.01152800493470   -1.92852052920318    1.10975330105555
O          -0.53034953199257   -1.07882327309501   -2.38894360221329
H          -0.26019432976299   -1.90130706038514   -2.80286339986013
H           0.27425134857776   -0.74805543067922   -1.89794113079655
O          -2.19086182922407    0.80267676449471    0.62119477473280
H          -2.01870282184237    0.54196782218750    1.55398492061677
H          -1.31014192926586    1.14321058935583    0.30563125830731
O          -2.26428893620524   -1.36976429594830   -0.55177705955800
H          -1.73129906953999   -1.94723809094554    0.10938489727549
H          -2.32570342756399   -0.38130268564621   -0.06505144295976
H          -1.64289441294499   -1.24326489145035   -1.35887871356081
N           2.38014181285551    2.30692281994483   -1.64398019937996
H           2.40798535511228    1.44369819104252   -2.17415753129141
H           2.70043777134374    3.06608712865485   -2.23237373976060
H           1.40797620025840    2.46331693934350   -1.39683257463752
