    26
        -50.47460556  Gyration_radius:  2.38425447937 Dipole_moment: 3.139
 S           0.95259337807620    0.94946732733954    0.42042987682276
O           0.84330905877041   -0.51444128580221    0.52587120979145
O          -0.37812804211515    1.55150982746302    0.36790657807906
O           1.66260267226603    1.45401528233419    1.69845352413960
O           1.76139331569529    1.33489956554434   -0.71919323529797
H           1.19750563153830    0.72112949324463   -2.04191500378830
O          -1.70847834981447   -1.39660298323980    0.17294510709744
H          -0.75958004947326   -1.22168708263392    0.30493340688205
H          -2.14728586568637   -0.96345317217129    0.91605378879441
O           1.68737130536667   -2.02916917885406   -1.48728729507898
H           2.62958687856016   -2.16613803948594   -1.37784628726947
H           1.38489666778504   -1.56546333723489   -0.67535875589127
O          -2.00917199825200    0.61218897717081    2.17204717998536
H          -1.44024096288715    1.02842637719005    1.47755311327015
H          -2.59768245665926    1.29981397818553    2.48619385913376
O          -1.67044264987502    0.47545708013595   -1.71367546129186
H          -1.88605674598527   -0.33688810507778   -1.19917565095909
H          -1.32546109136939    1.08211618566250   -1.02867591528666
O           0.36692351292071   -0.22369314987846    3.17867264967729
H          -0.57113801024110    0.02614395912678    3.07109667242739
H           0.54819166439516   -0.83914714536734    2.45511425972934
H           1.24271738098828    0.91880166180687    2.42500082483186
N           0.68609671241742    0.10150797720133   -2.73732525138662
H          -0.35513433345670    0.19441069587467   -2.46917906805509
H           1.02223431614339   -0.86428261961606   -2.52419312089736
H           0.86337805087275    0.37107768107003   -3.69844702548176
