    26
        -50.45363108  Gyration_radius:  2.49779337792 Dipole_moment: 2.036
 S          -0.24553479665648    1.38402844011825   -1.17431733562235
O          -1.61254157640328    0.90245208078353   -1.37169073460747
O           0.01034737301105    1.61766429186963    0.23995587955811
O           0.75434611971884    0.55245986258220   -1.79858499090093
O          -0.18251185659344    2.79055408701727   -1.88545212840751
H          -0.94943235440663    3.21539980725431   -1.51756656525360
O           1.41561095460367   -0.43663305677069    1.28532726180363
H           2.31409964408234   -0.36645708521961    0.90330661751750
H           0.97536423834808    0.37132982292102    0.95983508559695
O           0.47734678738590   -1.85192968452819   -0.71343704172777
H           0.81286811846323   -1.53156276618317    0.16681540099225
H           0.70075692039121   -1.11255142993154   -1.31591105683292
O          -2.83760155122129   -1.27787506870262    1.55005095957681
H          -2.22264598785497   -0.59511404516953    1.93675682610122
H          -3.72266894898577   -0.91649816091417    1.61894677175907
O          -1.17755220418021    0.55444392350407    2.39660438056893
H          -0.87224620637965    1.07469177868730    1.62766684350252
H          -0.38520416502783    0.11663909397420    2.72456370667021
O          -1.97413015301032   -1.51006601463674   -0.82854256104819
H          -2.35751861685187   -1.49535813863877    0.12589460123408
H          -1.90930583370666   -0.52129556746635   -1.12564887349974
H          -0.93893885799229   -1.79936768599786   -0.75851751326670
N           3.39486814820094    0.12134904266424   -0.51203706641211
H           3.99951517225982    0.92897198429728   -0.42667464471786
H           2.61630424481435    0.38557468550468   -1.11358331646659
H           3.91640536799755   -0.60085021704800   -0.99376049610545
