    26
        -50.45363108  Gyration_radius:  2.49779532208 Dipole_moment: 2.036
 S           0.70673249887742    1.15171674636109    1.23661488406313
O           1.36359731508417    0.90220683651784   -0.03873174388307
O          -0.47307457471832    1.99495659377096    1.04535480639277
O           0.43799258248620   -0.05593613149782    1.97845821447512
O           1.70771827109093    2.00966388234817    2.10261227040000
H           1.71662159508077    2.82615369242134    1.61551143929658
O           0.36137719079653    0.96391142659870   -2.52559759839495
H           0.76780625932775    1.11902534952659   -1.65044763013398
H           0.51788540755809    0.03096303643641   -2.70492345372163
O          -1.39607452723232   -1.36992638325022    0.58383363188480
H          -0.75026589753373   -1.56509455045729   -0.14752577587690
H          -0.81915967453569   -1.04270783663509    1.30471137734900
O          -2.21671242178916    1.33913521861966   -2.31935691943655
H          -1.24145363825858    1.19314379293027   -2.46574804657327
H          -2.39307986712956    2.25160833925848   -2.55382119514316
O           0.72032602689476   -1.55464906619864   -0.95410286696253
H           1.17838837237822   -2.18714940708311   -0.36395596162748
H           1.05460445807704   -0.68960527095054   -0.64993101652174
O          -2.48587589647612    0.81315387724581    0.15210015649044
H          -1.72376433809068    1.37398809909147    0.57020307146378
H          -2.46116056883110    1.00825058061977   -0.85759832952739
H          -2.13737365662230   -0.19572087739338    0.29673410066381
N           1.83151234783899   -2.59197593539663    1.31492066227374
H           1.47937680522260   -1.73622047877081    1.74096758381188
H           2.83147839133812   -2.61913613826459    1.47134781851553
H           1.42257753916722   -3.36975538584468    1.81837051074165
