    26
        -50.47460553  Gyration_radius:  2.38420686677 Dipole_moment: 3.140
 S           0.16742803910036    0.57008068644625    1.27779917212905
O           0.19199765564284   -0.80496973558873    0.75361654805503
O          -0.70537914029561    1.40668287136676    0.45664717508235
O          -0.42205337231041    0.51051282444063    2.70643033521230
O           1.50538612224009    1.12028288769641    1.37133840921431
H           2.23389819816985    1.06391654866984   -0.01079219187773
O           2.44774971955219   -1.76388735589361   -0.27226848666428
H           2.97656770092908   -2.10759887987416    0.44935209374047
H           1.57955966438130   -1.52189306479465    0.11941841924901
O           0.19817381618273    1.29310396913124   -2.05962608635924
H          -0.23503188620798    0.42060902597619   -2.20837350732761
H          -0.18016439834410    1.58145952737608   -1.20526496101529
O          -3.00569262504789    0.29703279301824   -0.06708829437328
H          -2.16391927752827    0.78660334178067    0.10915745917334
H          -3.70006979529641    0.95647726322852   -0.09618266014681
O          -1.04627946802751   -1.02160645007575   -1.66136057271132
H          -1.94422550831543   -0.75994341303347   -1.42132765620647
H          -0.56804812749003   -1.08383729078631   -0.81524255551315
O          -2.17443025524220   -1.25340469003937    1.99760391631996
H          -1.43274969262556   -1.64072707091944    1.51275964612157
H          -1.17971217198934   -0.12905284481030    2.61934768909638
H          -2.71522309146251   -0.80463037948588    1.31932912534459
N           2.51665828942967    0.79931407171017   -1.00029728759766
H           2.68148345858403   -0.23136661941591   -0.95864967660751
H           3.33216378478487    1.31044461215838   -1.31895668248185
H           1.64191236119619    1.00639736175227   -1.59736936987405
