    26
        -50.46186374  Gyration_radius:  2.40788410955 Dipole_moment: 4.158
 S           1.38937054629449    0.86734939532883   -0.66064880436982
O           1.57323969911914    0.66784772785327    0.77463730469557
O           1.50785342198166   -0.39228037073385   -1.38348194790423
O           0.19448687115479    1.60971351096061   -0.96780510150801
O           2.61015894686319    1.75623094626580   -1.13376360435683
H           3.33584471833773    1.16343831716837   -0.97594465917956
O           0.04737818123454   -1.31647740520761    1.67835880678989
H           0.21966508292709   -2.02513353888822    1.03087946308305
H           0.69365973312260   -0.61285359811156    1.45811179689822
O          -0.82502880461643   -1.51744595813493   -2.28626860766756
H          -0.67014522573456   -2.34754475122639   -1.82422736811784
H           0.00445605734686   -1.01766121695275   -2.19142751777972
O           0.96256888386036   -2.79512765699393   -0.39316214141864
H           1.74655122441263   -3.33797428583893   -0.30293793164948
H           1.25615390502532   -1.93599075927325   -0.77016159803485
O          -2.02631083914864    0.12775888295580    1.44445011512001
H          -1.29234434257990   -0.57288769873353    1.58138219448887
H          -1.48453460252143    1.06593662897905    1.63532119970019
O          -2.17265088663568    0.41053729457089   -1.04231465246101
H          -1.91327015004365   -0.38333183996557   -1.55947667406042
H          -2.20257567273061    0.17569088113985    0.41367219507537
H          -1.39342574290876    0.99862084802943   -1.12342944785203
N          -0.58334345139887    2.17352315546547    1.68209771542823
H           0.31705524621520    1.73459426671176    1.46211194916879
H          -0.50323980078265    2.70317222358023    2.54020473171462
H          -0.79157303878635    2.80029501104921    0.91382258419284
