    26
        -50.46186356  Gyration_radius:  2.40789106329 Dipole_moment: 4.161
 S           0.89683051821208    0.63397881375401   -1.38321858556906
O           1.43206187547785   -0.67221491676800   -1.00779270841459
O          -0.42851919460665    0.50616007785430   -1.97506818594332
O           0.97027684962950    1.59143853614974   -0.31037369729903
O           1.83757929796528    1.17180023766709   -2.53641785338811
H           1.66446509281385    0.53569677726608   -3.22081789361050
O          -0.32846400849785   -2.06520693276301    0.42107750441259
H          -1.14492458797704   -1.97293073693123   -0.10415303241774
H           0.37611571631083   -1.67869921838878   -0.14061075919778
O           0.05983142372022   -0.56046688227963    2.42745990810766
H          -0.21062015316180   -1.23832931162855    1.70929537228725
H           1.10615530188671   -0.35052536300660    2.16061246596746
O          -2.55538007431110    1.23110900736578   -0.40307938629544
H          -2.98418582567331    0.37355176097756   -0.48821855113231
H          -1.81734801360462    1.20791654483753   -1.03685486937901
O          -2.16311110974951   -1.43918723119389   -1.46544522305962
H          -1.51942270404802   -0.75121232589477   -1.74596259388051
H          -2.30658107428883   -2.00693626864520   -2.22335926640786
O          -0.86174838092603    1.62328730368523    1.61089716060058
H          -1.66127266375852    1.54263257253630    1.04565574788423
H          -0.41875846747968    0.33785550872536    2.18282118348377
H          -0.14572957740300    1.80155374447759    0.96667278652441
N           2.35099514083101   -0.02745435465406    1.53834984112998
H           3.19855362414056   -0.45169086221609    1.89178343959996
H           2.45749899480382    0.97983852258200    1.51830074379851
H           2.19570200969647   -0.32196500349836    0.56844644219444
