    26
        -50.46186373  Gyration_radius:  2.40788800542 Dipole_moment: 4.158
 S           1.18329274283866    0.50024334939142    1.21198189359807
O           0.12647849698766   -0.00305830477461    2.07974527610108
O           1.74361292176915   -0.57099240026809    0.39215352801944
O           0.80548739325921    1.65209714175873    0.43500882365406
O           2.35084516294916    0.96474655477425    2.17390355788412
H           2.47383260757047    0.18189795623108    2.69819562102290
O          -1.41786086332145   -2.10222462131481    1.56946257056590
H          -1.25197840470004   -2.83034027558869    2.16925807991769
H          -0.81309732577149   -1.37422477484345    1.83537853425722
O          -0.17165441790410   -1.95962214586403   -0.82677049264573
H          -0.79686583070774   -2.13732151026467   -0.09971199757620
H           0.61388436336047   -1.56613908660116   -0.39158560879339
O          -0.60347584488277   -0.02988022787955   -2.41748390984583
H           0.43863592480049    0.32161528546792   -2.39141873775727
H          -0.55520471915808   -0.87981593957345   -1.84858240815355
O          -2.45035256641628    0.59991175126244    1.35906209726470
H          -1.55882858773251    0.59199454999267    1.74887198297447
H          -2.72025006761162   -0.32373333653197    1.33524840398864
O          -1.50851123381439    1.71773134912876   -0.86437238200256
H          -2.08342266021558    1.36922578367000   -0.14811456985164
H          -0.66052019060694    1.89664381463136   -0.40775253811273
H          -1.09730095298805    0.68806207564158   -1.83737735922689
N           1.76079546554998    0.74761410166234   -2.05782474937198
H           2.50977352814112    0.57885360061908   -2.71644513742711
H           1.94430582816932    0.23630971666377   -1.18799155320583
H           1.73837923043604    1.73040559260814   -1.81283891527755
