    26
        -50.45780569  Gyration_radius:  2.41882817295 Dipole_moment: 3.172
 S          -0.60988751419188    1.67214719043107   -0.19008409929642
O          -1.88641965141897    1.08112208920130   -0.57082508494871
O          -0.38022406292965    1.59627645006088    1.23995664925816
O           0.49716333806095    1.14083922900430   -0.96233090302149
O          -0.71580489138437    3.19941566232161   -0.57064949444739
H          -1.57331038881181    3.41936256142334   -0.22333553153695
O           1.36476693370374   -1.08212535589452    0.25541098006934
H           1.97550251130276   -0.72582817329516    0.93388418848240
H           1.12487571810681   -0.28302660127980   -0.25495600158871
O          -0.38963032137486   -2.37215883882142   -1.45110821724145
H           0.37850324502757   -2.20030399278850   -0.88209956834189
H          -0.31840372837370   -1.72763137383416   -2.19429968482257
O          -0.12712393546603   -0.30270950611519   -3.08896659847721
H           0.59155969002772   -0.19603172632200   -3.71420618542634
H           0.04532321348739    0.32980315372397   -2.35969998709757
O          -0.75042776457386   -0.94461677775062    1.89471240279753
H          -0.71551541710881    0.03533513343293    1.86099632280404
H           0.09169429972957   -1.21659835128483    1.46545671209557
O          -2.22593493491324   -1.36051206952342   -0.07543844000824
H          -1.72865629532489   -1.29905712939047    0.85260118562819
H          -2.21450770056834   -0.38050954551244   -0.37501709152877
H          -1.53790344231236   -1.86823665679607   -0.70253153919517
N           2.29535814491796    0.63425617649651    2.13237491693992
H           1.44171899685126    1.14702201842401    1.91522215984157
H           3.07451814175385    1.25038533948443    1.93596301166986
H           2.29276578578341    0.45338108460307    3.12896989739029
