    26
        -50.45490056  Gyration_radius:  2.57826179279 Dipole_moment: 1.529
 S           0.78507184015690   -0.69516289695949   -0.37294473609984
O           0.33846985063730    0.69506902778527    0.07097800465957
O           0.72236651405358   -1.60007447052070    0.75110360466007
O           0.01111545927680   -1.13215145357016   -1.50462881336154
O           2.22975033916804   -0.47408595664282   -0.80787985369195
H           2.65322818044089    0.17567863139448   -0.12916746595308
O           2.98499129000772    1.16397168465543    0.95446768477883
H           2.76623374213842    0.63364773747225    1.77918132051868
H           2.26058605902962    1.78735294436288    0.84417718633996
O          -0.86284386004085    0.72908132260251   -3.16977081695445
H          -1.00555458100630    0.27978269851380   -4.00502779457859
H          -0.46896449266492    0.06107127866356   -2.56972357962358
O          -1.90104192454228   -2.02935772257863    0.34940963207454
H          -0.98908111339367   -2.08842375908470    0.68307037785958
H          -1.81660488612786   -2.14547268728363   -0.60223561590804
O          -2.96141178677859    1.48954063870149   -1.70339251379218
H          -2.99968382254707    2.44656661838322   -1.74218358449249
H          -2.22026853741191    1.22112976737757   -2.29449680358875
O          -2.05655721638555    0.59755139449905    0.60116422591658
H          -2.49867002418829    0.93834058869556   -0.22303374397452
H          -2.19529977366834   -0.38293000096472    0.60454497441477
H          -0.73516479012131    0.70141830064415    0.34150541794348
N           2.12225649173884   -0.39041503067530    2.90688152735005
H           1.57972569797390   -0.96067302540166    2.25644149885307
H           1.48296864166752   -0.02048078352113    3.59906569853805
H           2.77438269259218   -1.00097484654313    3.38249416810556
