    26
        -50.45259873  Gyration_radius:  2.48639407897 Dipole_moment: 1.285
 S           0.06027050982370    1.72461023185649    0.62167609075402
O          -1.00878333472116    1.89723208357321   -0.36478389033419
O          -0.31511606825580    0.70883329909088    1.59934174560646
O           1.35547200952569    1.52593291875708    0.03514337990564
O           0.13097572087472    3.08703023592685    1.41949366778966
H          -0.72945125574704    3.13944861156878    1.82178326493562
O           0.82786645525624   -1.67855349324368    0.95538566641289
H           0.52060591288173   -0.84125464298991    1.34419410725084
H           1.80310426015503   -1.58934140174288    0.96980774058677
O           0.58971905730350   -0.57718232979370   -1.46543936554866
H           0.67358977676299   -1.17960997055201   -0.69303564336880
H           0.89323503625356    0.28271291966917   -1.13326387885923
O          -1.62576488070896   -0.79145301929374   -2.78437632489042
H          -1.57223960009761   -0.18869596780273   -3.52834394956841
H          -0.72391364757184   -0.78188230738143   -2.35305613538839
O          -2.05729012792819   -1.23990095859421    1.18928401181831
H          -1.50099966743599   -0.51513974267627    1.54898925550546
H          -1.43149491200326   -1.94551051715585    0.98692025286495
O          -2.76374861517391    0.19064109015700   -0.76995399308407
H          -2.40653666329210   -0.25147794800491   -1.64476933851998
H          -2.59440523097173   -0.48070320345318    0.00060593307460
H          -2.07836330290533    0.96452359529484   -0.58746556866490
N           3.31703160236623   -0.57595194909154    0.77193063988099
H           3.90332414957871   -0.80302893563446   -0.02212101536949
H           3.92776145379671   -0.35350637656289    1.54834472182451
H           2.80515136223658    0.27222776808021    0.53370864538507
