    26
        -50.45259873  Gyration_radius:  2.4863885968 Dipole_moment: 1.285
 S          -0.61168010031856    1.54588518472170   -0.77485736255746
O          -0.98030382209357    0.30658305272419   -1.45072275695833
O          -1.32331540371957    1.65782903742392    0.50061369170983
O           0.80408861579013    1.75550721057367   -0.66218838874445
O          -1.16967029255683    2.71458179617670   -1.68066594842642
H          -2.09236362061955    2.49687610099534   -1.75914456601931
O           0.91437639408486   -1.60019375841187   -1.00914987369911
H           1.77254359351308   -1.29982787518641   -1.37327210607875
H           0.28413612955803   -0.94116610953615   -1.34846166462274
O           1.15241544223380   -0.14444568366969    1.21667626708159
H           1.15239588039908   -0.84724126385349    0.52919078513414
H           1.08918233940948    0.68321940115022    0.71383297010058
O          -1.90325161373608   -1.86923651472097   -0.26116922314881
H          -1.07752517772569   -2.36618722733319   -0.22034790611515
H          -1.70811190648020   -1.11951770960057   -0.86445908290498
O          -0.39247640234109   -0.59604722702570    3.24230509860190
H           0.29061115772625   -0.46659758586696    2.52389217204365
H          -0.27661707034809    0.13240047581891    3.85516987507846
O          -2.32574736859813   -0.29014619440045    1.66553338846782
H          -1.97125131949410    0.56875566666048    1.17709100152447
H          -2.22849340082300   -1.03939618454287    0.95680506746187
H          -1.60647762638015   -0.46855087390765    2.39984959038599
N           2.93387238224577    0.04473890874355   -1.82227858546366
H           2.31037385696190    0.78643260369552   -1.50712795117338
H           3.18582276800733    0.24773931869041   -2.78174612498810
H           3.77746657530460    0.10800546068493   -1.26536835668560
