    26
        -50.46408285  Gyration_radius:  2.39847205566 Dipole_moment: 2.446
 S           0.11205631856946    1.06092044361341    0.96837823660867
O           0.91969140247155   -0.16927068479617    0.98048904804525
O          -0.31611256474069    1.35271832911526   -0.40726169575138
O          -1.01031969187578    0.97833827384566    1.87486032981911
O           1.02616055555272    2.21676499737647    1.43041597163299
H           1.81917147604444    2.14696334357163    0.82020340575088
O          -0.50998359517679   -2.35572242748254    0.79272120227165
H          -1.38345895461423   -2.06326668331769    1.11249895966101
H           0.10248132299160   -1.61087577662598    1.01173923155776
O           1.31532336311455   -0.27609323078914   -1.57308683550817
H           0.71780862303502    0.50016804672914   -1.50158730551968
H           1.47217295071564   -0.45259111221544   -0.61835938498191
O          -0.62984462964622   -1.92673687174603   -1.66870307543196
H           0.21820038581985   -1.35918631956093   -1.79605137377308
H          -0.56812961891746   -2.26348933574523   -0.66370856218022
O          -2.71892483598749   -0.87112500907333    1.34199712263126
H          -2.09874850065127   -0.13570012918278    1.60401880610582
H          -3.43106527402296   -0.85698117302092    1.98293515763610
O          -2.30888863568301   -0.12562856526281   -1.23844570822630
H          -1.41580305273022   -1.21206687934068   -1.61838234466715
H          -2.72362217833002   -0.40267569528180   -0.40047379952194
H          -1.66145032998264    0.57626150969280   -0.98002388156082
N           3.06070691740592    1.86991473250115   -0.20750689807847
H           2.76888612153426    1.31229985243778   -1.00291438767498
H           3.75740082559425    1.34530711325664    0.30563786499715
H           3.48629161688745    2.72175323600184   -0.54939010505298
