    26
        -50.46408181  Gyration_radius:  2.39809870897 Dipole_moment: 2.447
 S           0.52642909028627    1.26371425204169    0.45136250321629
O           1.32843468014094    0.19271979901265   -0.16173153827419
O          -0.86195549262040    1.16852318594217   -0.02184665267575
O           0.60581022648896    1.23887970205696    1.89408188355820
O           1.10029993364911    2.60940420310128   -0.04376522695245
H           1.11096641288547    2.50675952075592   -1.04131808513193
O           0.94397107185731   -2.15221954776237    0.94054975038323
H           1.26641849563122   -1.30046239223878    0.55532929920863
H           0.61194251100301   -1.91587774741512    1.82636879652273
O          -1.14543426096754   -2.32412848160593   -0.42433998286570
H          -0.90826031793802   -1.69080375142123   -1.19931724986740
H          -0.24231813328012   -2.40813207070927    0.12696902938255
O          -0.39427141341605   -0.44736309990280   -1.98256813716071
H           0.48181161593265   -0.37486402213380   -1.54169031196622
H          -0.88908507914672    0.23630512311108   -1.48022331936404
O          -0.29612276550388   -0.89859529122152    3.00828761178594
H           0.06688276368091   -0.04493329450771    2.64288170351242
H          -0.21188776403367   -0.83573135784747    3.96070234775135
O          -2.25714767236823   -0.71864097960437    1.13610172250726
H          -1.87214071057147    0.10541462582413    0.74720225773044
H          -1.74839961772915   -1.73107685551998    0.22048994532375
H          -1.77293254937981   -0.84904408155153    1.97244502608576
N           1.12111675445614    2.15945490337505   -2.63966714521150
H           2.05392557253763    1.83370735091715   -2.85825288446445
H           0.91434576317907    2.95973988576717   -3.22315666492146
H           0.46760091514779    1.41725043154453   -2.86489467808648
