    26
        -50.45643274  Gyration_radius:  2.40086985806 Dipole_moment: 3.629
 S           0.33725696453712    0.93090417417512    0.92458746389825
O           1.29788120787627   -0.08293193425324    0.49964540483689
O          -0.84348519398746    0.91476617773675    0.04726412363843
O          -0.07268970922088    0.73060898067972    2.31290939501169
O           0.99680026514213    2.30682814241493    0.80774833835425
H           1.47509817203059    2.24394911533514   -0.11323930513219
O           0.13604591566269   -1.65930437777342   -1.39465737282732
H           0.59270648571681   -1.00735761027515   -0.83701664720398
H          -0.23450137813611   -1.14805285385794   -2.11909809538796
O          -0.44595260069051    0.99266917129999   -2.55678459923118
H          -0.63699083119982    0.96470862197418   -1.59159120460265
H          -1.17110790570250    1.47508178006307   -2.95615431546944
O          -2.72569438681172   -0.73825631769667    0.73324799468698
H          -2.04366091071411   -0.11298462043430    0.37055664277182
H          -3.45924563322150   -0.19319720406606    1.02414897148961
O           0.68069478601754   -2.57650152021096    1.17183368832561
H           0.34342148801981   -2.78774073853333    0.28801001892103
H           1.15303789954954   -1.72511974556627    1.03773863747225
O          -1.12112799327115   -1.50420845833801    2.54048825368437
H          -0.39995716015831   -2.08800038294194    2.03544319940124
H          -0.66305953981915   -0.55385220916235    2.58877758906109
H          -1.87787904429900   -1.34040662300967    1.86519398307270
N           2.08210540796601    1.85756668429929   -1.45491990946112
H           2.73938675536219    2.47236703447815   -1.91613931406823
H           1.31697239667968    1.63988585967995   -2.09241237917574
H           2.54394453267617    0.98857887397579   -1.21558053206444
