    26
        -50.46954183  Gyration_radius:  2.39863644989 Dipole_moment: 4.983
 S          -0.50490656525571    1.49160547242001    0.22612270516200
O          -0.27236156386143    1.74471409048205    1.74834143877384
O           0.83722946795311    1.22810039018208   -0.33430583515761
O          -1.34009576420882    0.29436961063924    0.10684315144244
O          -1.11029941257580    2.64794472067991   -0.37477566491809
O           1.21592346913835   -2.04622632478701    1.50490579806401
H           1.73438654297716   -1.20144217300128    1.51476679244305
H           1.76109099513469   -2.70610063480538    1.93525943524570
O          -0.36002711646748   -1.99335722305212   -0.81127385163520
H           0.27981052343035   -2.20782753164715   -0.11451107093575
H          -0.87188155143796   -1.24372986449893   -0.43988532098970
O           2.36827222985019    0.32459450607110    1.58878808684391
H           1.89619176758952    0.72339829331788    0.82283938191659
H           2.11707654619561    0.86145802397079    2.34416318644050
O          -1.93155143168729    1.30754784304668   -2.49229269843570
H          -2.60588735216823    0.76923885543946   -2.06902825861065
H          -1.66479819505710    1.95244139417342   -1.79646572389366
H          -0.59539027658343    0.39165395187843   -2.69887817921595
O          -0.91667408360403   -0.63831980375594    2.54979901278698
H          -0.49267558207480    0.88764465954169    2.20828291929934
H          -1.45319117399195   -0.57708367923859    1.74345167089013
H          -0.19488969140524   -1.25412767140696    2.32480045870074
N           0.32192697500481   -0.08834469821510   -2.48236423402214
H           0.72021318552107    0.50087895493109   -1.68856108288395
H           0.93659622183461   -0.14418917818586   -3.28623875201430
H           0.12591184573389   -1.02484197413826   -2.02978336526900
