    26
        -50.45878751  Gyration_radius:  2.49226336984 Dipole_moment: 3.597
 S           0.95188847161132    0.53504091355299   -1.80301466913349
O           0.17759640204366    1.73379008825353   -1.50232119806751
O           2.30055481427834    0.60831137940011   -1.27678342495499
O           0.25811698198763   -0.67808695118974   -1.43180929573671
O           1.10136638348725    0.49510253707715   -3.38068575845595
H           1.73444031317524    1.19096623045685   -3.52091645045630
O          -2.45485543994172    1.53575799836126   -1.41291886745156
H          -1.47864688223682    1.56904516626993   -1.52738441569592
H          -2.76242620019977    2.43682235781748   -1.52352210635813
O           0.12208581967295    1.38516715562218    1.15781183883396
H           0.18926111906338    1.65095609507345    0.22248466750260
H           0.88209938523571    0.80403872773440    1.31899908295576
O          -2.32747145371117    0.40673314679195    0.98483712668435
H          -2.57292606753288    0.83617745365479    0.13120946204871
H          -1.46870668475383    0.83218864103764    1.22827703202204
O           2.33219222158701   -0.29321460208805    1.14755849865733
H           2.34955314424150   -0.04228407092925    0.18801771003372
H           3.15509534602591    0.03821921533423    1.51204590822728
O          -1.39355745972947   -1.73794803846869    0.16858788151705
H          -0.81351915764352   -1.37829713609830   -0.57219231043921
H          -0.69678601658082   -2.01143906749727    0.91978131715137
H          -1.89360892394706   -0.85712046490318    0.54559136259826
N           0.37007266378655   -2.24685827635684    1.93954630362702
H           1.13290632826885   -1.63259298909525    1.65117657434228
H           0.71685378727990   -3.19680890035749    1.96032430449820
H           0.08842112453464   -1.98366662945086    2.87529941604992
