    26
        -50.45705158  Gyration_radius:  2.47202752723 Dipole_moment: 1.717
 S           0.15862558088606    1.44982779246802    0.50550265005041
O           0.55742319082811    0.13864410281140    1.10955000544539
O          -0.30522872764760    1.22382184066618   -0.85036613378966
O          -0.81786644475860    2.09752529315602    1.35300197190635
O           1.43128174568912    2.30929546586442    0.46801297100180
H           1.93701995732072    1.94989347064097   -0.34958955100540
O          -2.00988034348020   -2.16141324156093   -0.53996974104423
H          -2.77046657756138   -1.68773469441473   -0.88357276585931
H          -1.23050367777290   -1.87968394518077   -1.11449018447417
O           2.23245754868430   -1.34363614694759   -0.26684142226334
H           2.55599554535230   -2.05162106365143    0.29195754341445
H           1.66973695675688   -0.77289613087368    0.30835028738075
O          -0.02537907431643   -1.18212660128482   -1.86062364333871
H           0.81877757684334   -1.44299654495165   -1.45862311938163
H          -0.16595643273961   -0.25066047769004   -1.57067681337553
O          -2.95211409672120    0.78243273179071    1.89344734631521
H          -2.20767473269273    1.39135912141957    1.62199466833739
H          -3.24091689845698    1.09410816299588    2.75364300647685
O          -1.41417189194537   -1.22215640803448    1.71855700106473
H          -1.67153339388190   -1.68829337291290    0.81489978624591
H          -0.52661502681370   -0.66955109371227    1.50956328410302
H          -2.12263220021505   -0.49123540424264    1.87058371389350
N           2.48178326855154    1.24428488261903   -1.61896087675687
H           3.24978471405548    1.64716610303658   -2.13860408213949
H           1.65367047062789    1.22650257742685   -2.20194065182659
H           2.71438298339849    0.28914355057273   -1.36480525037818
