    26
        -50.45705157  Gyration_radius:  2.47201628192 Dipole_moment: 1.716
 S           1.14436680805642    0.48327181092640    0.91654059287970
O           1.46572137969400   -0.32772299511818   -0.24257620347622
O          -0.31282550629979    0.82759826867943    0.88196985793271
O           1.46324782107499   -0.15170894255973    2.17607076589844
O           1.90209670541154    1.81651309058529    0.82680577996103
H           1.85755938637998    2.04868434300759   -0.17191170449902
O           0.12889686376965   -2.25173450022465    2.79708593213928
H           0.76456562919657   -1.51820027694646    2.55928340148742
H           0.10462146493151   -2.27254821472543    3.75596790454802
O          -0.39047905756531   -0.65149570135181   -2.06929993137492
H          -0.81757148019670    0.21970692125925   -2.04009407784621
H           0.36762689323758   -0.58205302132321   -1.44325019212818
O          -1.23287854379028    1.88272230938537   -1.34008158749126
H          -0.89903547792532    1.56660674947630   -0.46723729222592
H          -2.11222359697322    2.22886361812525   -1.18168640603755
O          -1.71468190206182   -2.36778104239345   -0.67582297870643
H          -1.26868163172044   -1.72209592713683   -1.30914833450672
H          -1.11600411003653   -3.11411792960411   -0.60149362114561
O          -1.72197890153196   -1.10604778391694    1.50266069840933
H          -1.80189541945353   -1.64208818777562    0.60464313563588
H          -1.07437687695906   -1.64349881366310    2.09517787562066
H          -1.16774051847524   -0.22806879142538    1.26028097645928
N           1.66153545015151    2.15756974852280   -1.70682772228668
H           0.67248261005741    2.30708865658289   -1.88127913891045
H           1.89854951456436    1.21747942219965   -2.00011662654706
H           2.19910248646008    2.82305717941302   -2.24566109379061
