    26
        -50.45705153  Gyration_radius:  2.47211745488 Dipole_moment: 1.720
 S           1.30740209078760    0.40467456572449    0.71435598296431
O           1.36647067330021   -0.03420593402739   -0.66711518527618
O          -0.12739029283868    0.52478405059126    1.12682178607161
O           2.00463423763579   -0.46917313349752    1.63168987142490
O           1.90423874160186    1.81596341716378    0.82260593332710
H           1.57253801624939    2.28070829993401   -0.03018947688836
O           1.06017918092585   -2.83337431966784    1.94081729718366
H           1.54727459995639   -1.97715651337967    1.77280543826436
H           1.29699009573720   -3.09511368570145    2.83294044049540
O          -0.88228513923433   -0.16487373714285   -2.01397089130386
H           0.00868543101848   -0.14150642031477   -1.59308900066530
H          -1.35354350215028    0.59739566879904   -1.64094748685201
O          -1.64013733151776   -2.35259841067668   -0.88213835213486
H          -0.98744959669226   -2.99612324927917   -1.16613023201784
H          -1.43475830806145   -1.51012722642480   -1.39675194608209
O          -1.69517037254931    1.95106835825066   -0.42412443751054
H          -1.11365298489660    1.48043462040249    0.21896179920968
H          -2.52303422687119    2.11210947021033    0.03074639975205
O          -1.15678298651640   -1.69138371228299    1.49850466119958
H          -0.33257102587153   -2.25663205434289    1.74432663390558
H          -0.76061228954372   -0.70772636161156    1.38676566114632
H          -1.43388099699047   -1.99138482028985    0.53255600355447
N           0.96025488385206    2.73858262878018   -1.38000178015267
H           1.18308725024969    1.94816182793049   -1.97290603422178
H           1.27724744590380    3.59046791963108   -1.82273811724966
H          -0.04773364348592    2.77702873121593   -1.26379494814765
