    26
        -50.46206277  Gyration_radius:  2.40733388655 Dipole_moment: 2.089
 S          -0.42869152101410   -0.81005776386391   -1.55009154989406
O          -1.68763001453478   -0.99195818562157   -0.84834614479668
O          -0.07423329771415    0.60236590416072   -1.64614032421491
O           0.64800973119930   -1.60446058663742   -0.99874189868083
O          -0.66339260452384   -1.32271328128555   -3.02361692164406
H          -1.50056613358035   -0.92413586432125   -3.23459800130209
O          -0.35674127221247   -2.03442544053494    1.37562186479579
H           0.10248319617290   -1.97616805725082    0.50609548432622
H          -1.27613116231636   -2.20109011526940    1.14540241723304
O          -0.34922484807963    0.40866054840368    2.13721984019486
H           0.40276097127047    0.83981171591649    1.50655493003900
H          -0.29658216656948   -0.59821878128749    1.97398293195127
O          -1.38848988629512    2.76914357763153   -0.78892503750003
H          -0.93510140992507    2.04340899778253   -1.26083875814050
H          -0.69181491480740    3.31333605029781   -0.41545526853100
O           1.31462884555706    1.27870687909673    0.50224525951152
H           2.07311552035816    0.63180236136904    0.54018780255129
H           0.86895744339718    1.08332633752752   -0.35195459840344
O          -2.40661376711469    0.91272470635260    0.82627973721502
H          -1.27558113217130    0.68947158726121    1.68680772864977
H          -2.21481815607745    1.72640205034973    0.30675437869128
H          -2.30013436351732    0.17590506375651    0.18227730503389
N           3.01802710063738   -0.75314003155091    0.42196270459455
H           3.14095905514033   -1.32056041109330    1.25111186056575
H           3.90991771721448   -0.69710019784923   -0.05246918026807
H           2.36688707948446   -1.24103704335911   -0.19132657200197
