    26
        -50.46067657  Gyration_radius:  2.43736253655 Dipole_moment: 5.094
 S           1.35871176306737   -1.06505420704554   -0.88107794706789
O           1.50609192371212   -0.12090893117574   -1.96948747856329
O           1.32618857689362   -0.41681344915287    0.42016703538595
O           0.24868731726624   -1.98060867910793   -1.06377577020418
O           2.68127014513095   -1.94505145663347   -0.86936417032444
H           2.73013346772097   -2.25590266919386   -1.76741270713629
O          -1.98110256084157    1.08235952214103   -0.88332953672320
H          -1.78948245188719    0.69281460859887   -1.76363840573232
H          -1.18271322367088    1.59327009064282   -0.65889936785389
O           0.56263905878845    2.00751317731936   -0.39381394227551
H           0.87688903305946    1.09710718456075   -0.21955311307575
H           0.90624047517017    2.21348656183886   -1.26666181979144
O           1.19673103778040    1.45631721405823    2.30683533477870
H           0.96098394996507    2.12948947081982    1.65436253312428
H           1.61353348751500    0.75513653429498    1.77626904486180
O          -0.96285201372395   -0.29657033084981   -2.95546351480195
H          -0.02176272795650   -0.13822787415436   -2.74771868229871
H          -1.11030872486728   -1.20563988810339   -2.67665098818814
O          -1.65705317412546   -1.09153437872038    0.50738950261780
H          -0.93912577217621   -1.51610864436864   -0.01865190521784
H          -1.17992627070314   -0.58030886570491    1.71609142804544
H          -1.91122420774277   -0.27516235695989   -0.01571621469052
N          -0.88566628766287   -0.13643395540644    2.72580446498585
H          -0.08522740874800    0.54886021764203    2.57965908261038
H          -0.57336685511357   -0.88647237888718    3.33358000219978
H          -1.68828854685074    0.33444348354750    3.13105714533423
