    26
        -50.46206278  Gyration_radius:  2.40746121143 Dipole_moment: 2.083
 S           0.35372786229909    1.66472840937358    0.58696266951226
O           0.09073502993392    1.53574093192860   -0.84283780100825
O          -0.84159808630783    1.40190401993627    1.36953983584749
O           1.49068853731941    0.87255141766364    1.00425765193840
O           0.73210546702011    3.17431063966435    0.84639454643371
H          -0.11251799754467    3.60269747725998    0.75974878857598
O           0.20628973709505   -1.03576338376707    2.24554673907634
H           0.79763079724782   -0.35694075178380    1.84561600163069
H          -0.46694778480940   -0.52175043410509    2.70228277085644
O           0.48219365884414   -0.98236221271166   -1.55581037797227
H           0.38856174323067   -0.01980928447910   -1.37951089926896
H           1.40671160807273   -1.20175252177154   -1.25228932624686
O          -2.18437779252985    0.96300845628276   -2.12783051078457
H          -1.90139152521856    0.35315995391975   -2.81264419365730
H          -1.36434485133450    1.32529908662602   -1.73877066548014
O          -1.00886085375936   -1.95041102298255    0.18741467958460
H          -0.49723697371857   -1.73323208543343    1.04431545235749
H          -0.37821609194748   -1.61870447766064   -0.61315783210640
O          -2.68884056860519   -0.11258885147310    0.25534571794115
H          -2.73610102780519    0.25796221707734   -0.65529770181718
H          -1.82283079495334   -1.25918635873797    0.19695511522216
H          -2.12476086390563    0.52257839169119    0.75280514433682
N           2.84417818486243   -1.27318765869378   -0.38321355768979
H           3.71677743690359   -1.10356855415054   -0.86649002839976
H           2.98347344848204   -2.05239107240602    0.24772120571972
H           2.63495170117823   -0.45229231114981    0.18294657537863
