    26
        -50.46009925  Gyration_radius:  2.46625604988 Dipole_moment: 0.823
 S           1.20536464591801    0.33011509003205    0.45145707183620
O           0.96539219257034    0.23167860917139   -0.98441572666535
O           0.57637202930176    1.51345733731782    1.01617497579630
O           0.76176366450203   -0.88733448191367    1.13145417318890
O           2.73899465739295    0.41804931880364    0.68386055262588
H           2.95226523074970    1.25138012632845    0.19129273862281
O           0.13804078588171   -3.09871064623517   -0.14797220995742
H           0.47064044733555   -2.31755936986455    0.35381409928497
H           0.91497026708306   -3.58280383992521   -0.43013554767665
O          -1.67900384852548   -1.52786055218746    1.81252991134955
H          -0.75491827860090   -1.19156907448949    1.72164322363064
H          -1.60966150694654   -2.47845492546396    1.68454974407590
O          -0.94592211936536   -1.30238921260804   -1.80020144224790
H          -0.20339206934140   -0.66311034953507   -1.62326919190211
H          -0.65390093192254   -2.12813626246367   -1.35217922450147
O          -1.82719082757274    1.93981233245160    0.21792454225278
H          -0.87312393429003    1.80169211022767    0.47935832642254
H          -2.24522110990311    2.35344393878645    0.97616446525666
O          -2.65894668959374   -0.41601627417221   -0.25781748836875
H          -1.96497876271078   -0.81036009127124   -1.02061657864463
H          -2.37695618594403   -0.88479549425052    0.61113652339224
H          -2.39820893636308    0.56802850431727   -0.12803951203208
N           2.54789445940877    2.57262203080357   -0.76491844108586
H           1.99715066924369    2.00550251089180   -1.40190033276293
H           3.02997300544876    3.29110392641371   -1.29077891461819
H           1.89260313625491    3.01221472880399   -0.12911570725138
