    26
        -50.45409703  Gyration_radius:  2.48284841199 Dipole_moment: 3.307
 S           0.86009051029469    0.49611208601614   -0.68390546775066
O           1.49480485023763   -0.62097500110081    0.00883455046419
O          -0.58538769505500    0.22744208592212   -0.83257846771524
O           1.07467075146927    1.76283302210213   -0.01727110882568
O           1.45757925835021    0.60364371128603   -2.10109345072994
H           1.22060993103327   -0.26383900155551   -2.56986408867540
O          -2.17598765596713    1.67159065541350    0.54593803991577
H          -1.52917323722961    1.21040095777034   -0.06443856702496
H          -3.04472939364232    1.33972597029291    0.31068594954264
O          -0.12708400455179   -1.24584347835673    1.91207443285216
H           0.59928084665277   -0.98741028316801    1.27904189031215
H          -0.70186231470053   -1.82762800256169    1.39965168667576
O          -0.45874093683173   -2.40477889295661   -0.75127059626993
H           0.45367481506052   -2.40332606057280   -0.43694105709284
H          -0.67420786218925   -1.45160461747792   -0.82659440768945
O           0.98715084262305    2.31390993343270    2.47639970129217
H           0.86576834101665    3.26580135410890    2.48865742913780
H           1.14323736478431    2.07754514984916    1.51659784280419
O          -1.09362927318667    0.93290475114031    2.70287756661423
H          -1.61726852804328    1.26660439489448    1.87333111534076
H          -0.72849615833787   -0.01348597061495    2.44498869161208
H          -0.23538009630058    1.53417904820509    2.72912687631714
N           0.78632397706397   -1.63999211827791   -3.25300906496249
H           0.22348596206038   -1.48666803473088   -4.07899923092383
H           0.22513885378539   -2.14381269346782   -2.56614897385293
H           1.58013087158928   -2.21332895558944   -3.50609129135590
