    26
        -50.45892998  Gyration_radius:  2.45696911523 Dipole_moment: 2.270
 S           1.34488718212571    0.27072994670297   -0.07183517142208
O           0.97574881860628    1.09864413772113   -1.22704595343927
O           0.43800072940377    0.54513795969776    1.04711879136058
O           1.36703660745733   -1.13939844642023   -0.41080787095576
O           2.77446180165062    0.67083121722915    0.36261969747536
H           2.66361657165563    1.64133121487942    0.56987496001321
O           0.10315715626241   -1.97600643344338    1.89718562777316
H           0.23014051487910   -1.01248894078693    1.81643325482052
H           0.66776560940003   -2.33050695309636    1.20141118184695
O          -2.42913738966548   -1.99040195596387    1.08279794840573
H          -2.98575015696250   -2.16158129124495    1.84372921788459
H          -1.49703618527815   -2.11212227886641    1.38974916251859
O          -0.37335017268517   -1.98504970156415   -2.16942034020052
H           0.11196225649141   -2.26961571241847   -2.94579682408687
H           0.30426398697247   -1.77856486651189   -1.47959139124891
O          -2.08355740365341    0.48251641414011    0.27945842286788
H          -2.34763705423233   -0.44036846858935    0.54317080818816
H          -1.18698989266704    0.60908658698380    0.67257174332068
O          -1.28091366515148    0.39815174379758   -2.04956153440137
H          -1.08225651387313   -0.58773428781363   -2.20802956838141
H          -1.77483914619845    0.45019243330928   -1.05916718366658
H          -0.34744472243449    0.78672810156591   -1.82333032140886
N           1.81823592474912    3.05657295783042    0.70261044262939
H           1.09191182837195    2.73101910256187    1.32979076692809
H           1.43464538541954    3.03379189176024   -0.23571101697499
H           2.06307794935774    4.00910562854537    0.94177515015509
