    26
        -50.45770212  Gyration_radius:  2.42037073232 Dipole_moment: 2.958
 S           1.75712637957957   -0.31584052831079   -0.28069994145530
O           1.46429783009792   -1.70403306125107    0.06095298606020
O           0.86946373285840    0.16163409042415   -1.33394373115773
O           1.77097173047580    0.56993525600734    0.85886739691866
O           3.21589871829042   -0.34964665218084   -0.88033806649799
H           3.28609972011865   -1.26752469872294   -1.12011841825207
O          -0.65962749382581   -1.61374615237418   -2.53756590743793
H          -0.90749770950453   -1.22343600223620   -3.37745563227794
H          -0.00942837857093   -0.99980974049785   -2.13025346033480
O          -1.31259198162041    1.09517037137126   -0.09546157507106
H          -0.54808029660845    0.78658770085839   -0.62262625477902
H          -1.05591221391168    2.01253810169429    0.13672738778076
O          -2.31836638882799   -1.44354780442338   -0.47315760060858
H          -2.27840146356443   -0.47939364762480   -0.35881168800509
H          -1.82138802383689   -1.62970991410198   -1.30535778680727
O          -0.44641420432061    0.12188895918699    2.24774448098248
H          -0.97823658621000    0.58271287263584    1.56082137000270
H           0.47664893984003    0.30842952850197    1.97726135925282
O          -0.68459861037526   -2.17003384444843    1.28363209813297
H           0.20487667321821   -2.12964453095107    0.77564397453371
H          -0.64328228977340   -1.28591472221175    1.85587218502568
H          -1.43737414454121   -1.97486480873804    0.56189759630266
N           0.26626801562453    3.13818889135959    0.71782133659209
H           0.96918422818212    2.40266721290692    0.77684221113322
H           0.20706802086109    3.57212667340305    1.63107849803780
H           0.61329579634280    3.83526646972582    0.07062718193033
