    26
        -50.46448220  Gyration_radius:  2.45272948908 Dipole_moment: 5.455
 S          -0.36348624149847    0.53924234407494    1.92837767982644
O           0.78781500534969    1.37338157441755    1.63966958912402
O          -1.51333735445419    0.82687747479297    1.10578978195529
O          -0.00392673335727   -0.88087043466738    1.91615076003528
O          -0.78287966475271    0.86435227755319    3.41876851503068
H           0.06482394100404    0.83546568630470    3.84718063632757
O           1.37167020476628   -1.78134902615845   -0.09013771171500
H           0.85710891207985   -1.45912525860722    0.69568720601825
H           1.75400347558914   -2.62041874403433    0.17181474011589
O           2.42286448101883    0.70337431039575   -0.27526327757412
H           2.23916551976305   -0.25402677214395   -0.31555380287891
H           1.91985989267339    1.01223558384451    0.51780955124118
O          -0.99401112450173   -1.71277062024802   -1.56393260876526
H          -0.09174311672977   -1.82089442911125   -1.22388208121048
H          -1.57377926977101   -1.92815193535324   -0.80147916347869
O          -2.26115181299515   -1.83452143450381    0.81806903918048
H          -1.45545062818938   -1.62594476379962    1.32512947569438
H          -2.75834508041952   -1.01087727156031    0.82708669350648
O          -1.37216647834682    0.87282364081218   -1.52112113083213
H          -0.09941854694079    1.42443339677139   -1.84199262941978
H          -1.29992482789977   -0.11227206605568   -1.66798847441935
H          -1.50131518251671    0.96337288438496   -0.54986445778939
N           0.92543663541248    1.82720046888948   -2.06406866987361
H           1.60851188884903    1.36243419543171   -1.35565188861644
H           0.92934299872904    2.83183625450595   -1.92301526508844
H           1.19033311713851    1.60419265406655   -3.01758251639282
