    26
        -50.45412437  Gyration_radius:  2.56354327393 Dipole_moment: 1.813
 S          -0.37571845946382    0.71926591944170   -0.39929705005199
O           0.57723693648413    0.70793914750602    0.70079135249460
O           0.14426253437757    0.01646151860302   -1.57311836673825
O          -1.66799012450435    0.14078043468508    0.01812505668695
O          -0.68977983777841    2.16851866923772   -0.78291246604054
H           0.21566934584335    2.65332316472189   -0.98826560674279
O          -1.00060530784987   -2.46563518434331    2.53410609071759
H          -1.60774789977107   -2.79760790446926    3.19785311994981
H          -0.91406091709721   -1.48017215570379    2.69451840425074
O           2.67934242777580    0.72396961679105   -0.98283783708037
H           2.31896076661983    0.66147244811958   -0.08571749674891
H           1.96761505634138    0.33921314118045   -1.51717754929335
O          -1.01019618001948    0.13413611720350    2.69777578902163
H          -1.79263858439831    0.36501084185640    2.18484513461234
H          -0.27192125812401    0.38714557921799    2.09895125085006
O           0.12980699852575   -2.55710380930541   -1.47624925272845
H          -0.04876155550550   -2.86180736283093   -2.36814803137938
H           0.23156370658288   -1.56642393660259   -1.53822948059746
O          -1.80114125643514   -2.31550495945391    0.13760517330596
H          -1.03297516524427   -2.57132732171486   -0.49828177644093
H          -1.47469643594468   -2.48303975263924    1.10567309603833
H          -1.82046590174353   -1.24306175885234    0.05533740704288
N           1.56455909376936    3.26012675040030   -1.26423430131788
H           2.18796833258205    2.44354259111340   -1.22930816171801
H           1.84716369926492    3.91919123388350   -0.55167086200624
H           1.64454998564690    3.70158698193343   -2.17013363606380
