    26
        -50.46448243  Gyration_radius:  2.4523071971 Dipole_moment: 5.466
 S           0.36567909366378   -0.77486304421387    1.84429163693447
O          -0.29891088987729   -1.75602294991165    1.02135512088306
O           1.71683349792116   -0.46726910164715    1.41459504303685
O          -0.42588917650188    0.44598678946759    2.01461983963855
O           0.49435165367531   -1.40975028311919    3.28762836083028
H           1.10038932402992   -0.79927067565409    3.69155620445950
O           2.11677271268435    1.33842856040390   -0.42078949729142
H           2.09148113411083    0.69941000867779    0.33311904086613
H           1.28969522269757    1.84782475700945   -0.32882525341103
O          -2.09736648432659    0.53088279391700   -1.29825641774050
H          -1.52880204967649    1.24425773773997   -0.96767723873470
H          -2.55970349834995    0.19272404778927   -0.50095951753881
O          -0.38444497904350    2.21427951397066    0.11726384205765
H          -0.40661407217067    1.56002730309275    0.86397242410418
H          -0.70997212616714    3.03942920401118    0.48056461180338
O          -2.77277088470489   -0.49326141568735    1.10806672183413
H          -2.50877995055355   -1.41415029334413    1.01901592244024
H          -2.01825974746305   -0.07756968211913    1.56374890186290
O          -0.46103847740391   -1.48584300062256   -1.59066406919519
H          -0.37377111442483   -1.71444668026627   -0.63753351647050
H          -1.14772392021535   -0.76099525296448   -1.60693289490139
H           0.76361289833459   -0.89308978651509   -2.01009777362006
N           1.72342502370393   -0.39092867802455   -2.30764068174539
H           1.92544742551560    0.37427583349491   -1.56068705570294
H           1.63131668037771    0.02217000215405   -3.22954708621166
H           2.47504271416531   -1.07223569763824   -2.30018666818885
