    26
        -50.45726320  Gyration_radius:  2.46388002832 Dipole_moment: 1.965
 S           0.72570717495394    0.68333105169468   -0.29524724035859
O           0.79723706314306    2.05477139563876    0.14192885305033
O           0.35090596198390   -0.22725459600260    0.79181053401647
O          -0.13931210746638    0.48685282542853   -1.45790672726891
O           2.15196125493766    0.21986106960378   -0.77158999797946
H           2.72947328810480    0.46230009560306    0.01518515249611
O          -1.45958907671360    1.54769843971112    1.57514428008550
H          -0.88656256716345    0.76229329532873    1.61903422254286
H          -0.90330891657675    2.18192659971415    1.10030419885954
O           1.13329511448658   -2.07480929701953   -1.95337021742007
H           1.61134095317721   -1.33182072385452   -1.55536193108796
H           0.65846061911635   -1.69706122249355   -2.69786208022724
O          -0.64774529955071   -2.50739599790066    0.00507317769323
H          -0.25286657917044   -1.74883382752994    0.50030510697329
H           0.01733743223176   -2.68828802138778   -0.69309673860675
O          -3.49503356338486    0.48366523950095    0.28528869229673
H          -3.96923582766246    1.19718974145268   -0.14514349960900
H          -2.79489264711307    0.90799551590237    0.84705990067059
O          -2.13371894317616   -0.99934069925203   -1.28164028362945
H          -1.63034885134598   -1.76631847549620   -0.70872813329910
H          -2.75899322426251   -0.48360581279980   -0.65525744398004
H          -1.34166829511908   -0.34813062079010   -1.45212917015869
N           3.09656239016548    1.08780069650789    1.47266669700125
H           3.96293022579573    1.53249690890086    1.74746796454848
H           2.79958727134099    0.46642036228871    2.21389949566167
H           2.37847712999336    1.79825605729441    1.35216516764660
