    26
        -50.46217531  Gyration_radius:  2.47779250077 Dipole_moment: 5.226
 S          -0.25084196263229   -0.11463283283054    2.05704847804612
O           1.14535161286885    0.15562056803180    1.74838246701378
O          -1.06476418190721    1.04872324267500    2.28056460643574
O          -0.81387876888329   -1.05150185265602    1.08252293393398
O          -0.23877784926098   -0.90204896961930    3.44195600853701
H          -0.86585863230790   -0.40917353918715    3.96108969879596
O          -1.07322609558982    1.93403879103710   -0.27589846653965
H          -0.14599709456565    2.20671784148968   -0.31487004556013
H          -1.22699139517081    1.66669517338320    0.64480316734900
O           1.48489449825379    0.04658958630848   -2.10008374555580
H           1.67662117812088    0.85277009609290   -1.59226048470457
H           1.44048376929320   -0.97181225472112   -1.07917450733317
O          -2.43258474594489   -1.57721647526490   -1.02299721405136
H          -1.92071309474048   -1.41769967978392   -0.21116719591394
H          -3.30327517061099   -1.20786933214816   -0.86460663090630
O           1.72632069556117    1.93498869078453   -0.09515322016646
H           1.53588967857391    1.30282421661907    0.63661282760446
H           2.31356030029043    2.60067941446067    0.26492237377614
O          -1.06544804639515    0.31359269355236   -2.44988970572389
H          -1.54877228820371   -0.47004289706828   -2.12956066685696
H          -1.20531174988290    0.99023102149911   -1.75827115981330
H           0.52254508709450    0.13840058838923   -2.37624014808190
N           1.36640417128886   -1.64727168002108   -0.19181158759655
H           0.39184634858485   -1.54880610836422    0.21068186368570
H           1.95953128182851   -1.26346116051282    0.54806181435160
H           1.59299244433570   -2.61033513214528   -0.41466146071976
