    26
        -50.45787833  Gyration_radius:  2.45602725974 Dipole_moment: 4.239
 S          -0.29070363166162    1.45619811356874   -0.08006616194493
O          -0.30652235994777    0.71472570956702    1.18525110353281
O           0.44112223889271    0.70341114281922   -1.10421416159482
O          -1.63916066963971    1.77539311506256   -0.52840659957650
O           0.45344478975430    2.78422290726918    0.15415922418468
H           1.37443659290521    2.50986234993734    0.48420233062343
O          -1.96914784461415   -1.31813383739539    1.11265513283551
H          -1.32808482986717   -2.03598053192266    0.88946578081290
H          -1.40782324679237   -0.53228127763406    1.31706050758855
O           1.72137442209333   -0.82867279844242    0.64079342340184
H           1.01506558248415   -0.32742845500591    1.10408183985082
H           1.59043179146136   -0.53071578182793   -0.27414419676025
O          -1.01752499430810   -0.82946716967943   -2.61000197566317
H          -1.07754029245716   -0.40772766690643   -3.46897724652862
H          -0.38225642994115   -0.28156749239969   -2.07810992454613
O           0.05920833897632   -2.96335338051870    0.59045080650299
H           0.77075450849343   -2.28569993992593    0.57145242573671
H           0.30827927937948   -3.60255494100781    1.25930353338475
O          -2.89373222423388   -0.33999981117745   -0.96215735944894
H          -2.26696226994211   -0.67881090659271   -1.69495617646738
H          -2.59950332112924   -0.86529763019911   -0.05263493886663
H          -2.52318439712434    0.61379762407456   -0.78505593644109
N           2.76770756861489    1.92740955731536    0.99548328899550
H           3.54486561701106    2.22135915255304    0.41862154434231
H           2.70647925122284    0.91170494508248    0.96596185030773
H           2.94897653036857    2.20960699339346    1.94978187574379
