    26
        -50.45787833  Gyration_radius:  2.45602393563 Dipole_moment: 4.239
 S           1.36020876324716   -0.16540350604124    0.57780718511034
O           0.92244764465007    1.07395580082692   -0.07289835876262
O           0.20155172915729   -0.98526909937522    0.94722831050248
O           2.28347099271557   -0.91310952900347   -0.26466959619525
O           2.10537812091900    0.21228318826063    1.87176914071658
H           1.43100667734776    0.74702543196686    2.41186711855847
O           0.09970002601534    0.65521423054995   -2.53254509167395
H          -0.87181027368358    0.59410701970801   -2.36369979699982
H           0.48524042173500    0.97030210160730   -1.68018960596917
O          -1.52103865834030    1.02734863664434    0.83157707647016
H          -0.66285517576767    1.31058264538576    0.44679701336808
H          -1.32766579904422    0.10231530115043    1.05507240125476
O          -0.50831761292809   -2.76049708500580   -0.81045117736861
H          -0.24176672687036   -3.61672672081543   -0.47119376955945
H          -0.31615778757385   -2.10620204102039   -0.08819805985488
O          -2.42604946979409    0.63183691531136   -1.68770820225261
H          -2.24145967796287    0.76525080679082   -0.73168684521208
H          -3.00107990287316    1.34903588982475   -1.95774376971071
O           1.12508859998936   -1.58955440348276   -2.37120821714950
H           0.40805102137708   -2.15568532659933   -1.91296743197200
H           0.65411236140780   -0.62934939207336   -2.58554206612397
H           1.74874293894502   -1.34688872122950   -1.57711873953207
N           0.27262283135239    1.57008008442134    3.13475684493677
H          -0.54726205297279    1.54230305942482    2.53201495146743
H           0.54240465052407    2.53636744093453    3.26394205677465
H           0.02543633842063    1.18067729184440    4.03498862917663
