    26
        -50.46309539  Gyration_radius:  2.39399477333 Dipole_moment: 2.609
 S           1.47539039741205    0.12086320285346    0.50015946207673
O           1.19644775327192   -0.28916032863597   -0.87459654477832
O           0.34442370633856    0.92518872709870    1.00153334511534
O           1.73549475833936   -1.00282951750878    1.37187219454838
O           2.72143899879196    1.03600446347622    0.49510775249808
H           2.50842560562432    1.67994612651385   -0.23967430038006
O          -0.14509769498995   -2.76450285348162    1.38855693035358
H           0.62843469516711   -2.13610585158320    1.40079762329327
H           0.15254165864786   -3.55702714886316    1.83758959277201
O          -0.70607461449789   -2.01495469696234   -1.16267661238475
H          -0.57597150504250   -2.53740783477313   -0.34852737465405
H           0.07448471959904   -1.39889441166070   -1.18488704640831
O          -1.29494185955347    1.87180810334804   -0.72366376391093
H          -0.57628077468618    1.55821191344842   -0.10195611011175
H          -1.77564397636501    2.55046215818510   -0.24475455282431
O          -1.64305992541254   -0.54439519902059    1.89181374980206
H          -0.87384610724882    0.05817068605453    1.74723653536804
H          -1.25592424132360   -1.43666247231390    1.94473328703268
O          -2.46255999071510   -0.40212020596820   -0.47276349284245
H          -1.77450821475935   -1.13174756250586   -0.87808027812332
H          -2.27195022274702   -0.47381607368309    0.56305143728681
H          -2.08514874861483    0.51000327708065   -0.72373332957481
N           1.79872919386030    2.33718948096595   -1.57317367351817
H           1.01358898960498    2.96660178995422   -1.46736123444336
H           1.42957938024776    1.41546374027631   -1.79739435735703
H           2.36202798922488    2.65971047769215   -2.34920923885499
