    26
        -50.46274735  Gyration_radius:  2.39305724714 Dipole_moment: 4.909
 S           1.15230540748319    0.35248896336236    1.06373864866387
O           1.26074199434214   -0.22876503104714   -0.28714015888706
O          -0.11469707380315    1.09822085101789    1.16109273537914
O           1.26551479164332   -0.66560427379880    2.07592438634615
O           2.30017256157255    1.36830601441731    1.21647130953041
H           2.02323405965701    2.10188793861887    0.58141210019359
O           0.10861360966731   -2.53485673229394   -0.61193712254511
H           0.61424262768904   -1.69126452874368   -0.47414505026260
H           0.74882722977716   -3.18518354867993   -0.90327931564799
O          -1.99331281936523   -0.90392826899870   -1.34438081288909
H          -1.38089279687714   -1.65516912132863   -1.27076556832451
H          -1.46552564621557   -0.16996030959407   -1.73048651370143
O          -0.12721004176217    0.84809451723947   -2.20228699956891
H           0.43531083240659    0.51143433310071   -1.46059140069790
H           0.28100825069445    0.52989007891303   -3.00973085394960
O          -0.80495662600185   -2.27831573613624    1.94580842927231
H          -0.56112162011515   -2.68100691304976    1.09252252893146
H          -0.00705320672878   -1.75995748792995    2.20526756711899
O          -2.14721944839452   -0.33242009360201    1.11389315579641
H          -1.72738546936172   -1.19524076174285    1.54998207656540
H          -1.36105436992175    0.35348326433880    1.18350918775909
H          -2.21975654403951   -0.54107774874337    0.09453939247131
N           1.14559095294954    3.05414064594512   -0.38212915129974
H           1.06101052104433    2.77446062736559   -1.35186282762908
H           1.22291347879078    4.06214251825490   -0.34284474052660
H           0.29069934488369    2.76820078310363    0.08741897789452
