    26
        -50.46062648  Gyration_radius:  2.58182334147 Dipole_moment: 4.380
 S          -0.44817270415221   -0.68609130792819    0.18982420835798
O          -0.79262394669242    0.65069386479766   -0.36812240572382
O          -0.71343283383012   -1.72170919681718   -0.92427517252657
O           0.98030173416113   -0.72449147713078    0.47799865812478
O          -1.24956090332032   -0.98001441951938    1.35341498517158
O           1.24781599181423    0.38643997272975   -2.05868764777447
H           1.66128707244230   -0.28658951892013   -1.50720407072612
H           0.47303116166594    0.65993632190880   -1.53549414385293
O           1.79190595076277   -0.92783003496301    2.98739914366993
H           1.55779777746002   -0.91529989835954    2.03199884012003
H           1.83254466701603   -1.85346410177349    3.23210246249987
O          -0.35015506244787   -0.35252874766287   -4.12719435990148
H           0.32843541099613   -0.03372010237285   -3.49625005879053
H          -0.09355045746794   -1.24349132452612   -4.37105740163648
O          -2.36511339722555   -0.43348253595198   -2.36733158238947
H          -1.46445294202381   -1.35645339078317   -1.49731191780691
H          -2.19714606990569    0.34478984429439   -1.82074502796643
H          -1.77347754090443   -0.34737306907251   -3.15190355244470
O          -0.42569891129665    0.49488422991214    3.35140189892120
H           0.38472839470419   -0.02893260987821    3.53723168031448
H           0.10678070618782    1.43000667318797    2.36803368538812
H          -0.93492537200913   -0.08535020813558    2.73440769116074
N           0.52738883743231    1.93002673370662    1.46328389054502
H          -0.05945299723580    1.54608118380608    0.65613215665153
H           1.47855354548381    1.59033375114292    1.33005249307004
H           0.49719188838431    2.94362936830585    1.51229553755382
