    26
        -50.45409702  Gyration_radius:  2.48276331471 Dipole_moment: 3.304
 S           0.73301659592115    0.63759480933637    0.71340752696819
O           0.90187364949884   -0.22663346594039   -0.47334957620611
O          -0.47745994125746    1.43951538568193    0.56420922532467
O           0.73232061572107   -0.15667325651203    1.92345346636992
O           1.94922241652771    1.58310823661171    0.77237105589118
H           1.97058820860164    2.06564133051170   -0.11961587715994
O          -1.16639806897748   -1.50866992398488    2.97070390230293
H          -0.46120236679303   -0.88462419274526    2.63220739999194
H          -0.70903592149570   -2.12057132781741    3.55150068033541
O           0.57538435647110   -2.73483668164267   -0.12948453098810
H           0.72219293122570   -3.10422557943598   -1.00249057739461
H           0.81171331273959   -1.76362473672187   -0.19667958551476
O          -0.44061617248034    1.26582924807985   -2.18237861196127
H          -0.81980403506860    1.81514035188009   -1.48538210552491
H           0.10486573129891    0.61794995970208   -1.68903261547490
O          -2.24547447377655   -0.17533040967299   -0.38938622037845
H          -1.65465911430974    0.47255707786893    0.08637630289717
H          -2.01107558840118   -0.08103869047871   -1.32086920497981
O          -1.78136976429414   -2.38777793917271    0.70423090934297
H          -0.83881439366224   -2.62760696687618    0.34685275254386
H          -1.61668075413024   -2.08981270847836    1.69568431938359
H          -2.05120142028286   -1.50121487591593    0.21783893600970
N           1.95848175461676    2.76299365398661   -1.55498570267683
H           1.81263091397206    3.76219518167621   -1.49804081944017
H           1.18497049323950    2.34894877442640   -2.07540074388210
H           2.81653105509406    2.59116675561712   -2.06174030577509
