    26
        -50.46460162  Gyration_radius:  2.41022178715 Dipole_moment: 2.668
 S           0.43174171850668    1.04509968480945    0.82476328768987
O           1.00786860818648    0.59740383735548   -0.45035037828900
O          -0.87834746150916    1.66310389816882    0.58438279830212
O           0.34973625466873   -0.04454602156022    1.77693794428071
O           1.36975003119325    2.12262911637879    1.41502316877452
H           1.35685622270294    2.82277557889857    0.70221948184744
O           2.05952526388734   -1.67558030040584    0.44036553832015
H           1.88989762985084   -0.84697764018923   -0.04964986273482
H           1.79741640584987   -1.44441998483824    1.34077125945728
O          -0.01771716584809   -3.01730316046719   -0.42161198651276
H           0.20183319939835   -3.92467009135001   -0.63576220338364
H           0.82560157762393   -2.58775149364581   -0.10241101285749
O          -0.72068737600640   -0.81063280192094   -1.86883596134994
H          -0.01554174919323   -0.23745560999554   -1.48784379507716
H          -0.50575247602280   -1.71146338436802   -1.56073862710594
O          -1.61815348906609   -1.76798053777404    1.41391991572705
H          -0.91409908580364   -1.17187930592152    1.75669898842626
H          -1.15369962593263   -2.40374043087019    0.83708909022200
O          -2.46827904970106   -0.07666171301358   -0.22439806746502
H          -1.88146845721341   -0.38589745864794   -1.03815301691182
H          -2.28756761031878   -0.82264714926578    0.50114022563075
H          -1.92494838213920    0.73839704535197    0.13705037586342
N           0.90486119168247    3.47936709778335   -0.74337965562319
H           1.19783688639156    2.72196648494239   -1.34939508738209
H           1.08622069692939    4.36309781850325   -1.20215535462570
H          -0.09288376808469    3.37576655202978   -0.59567705523985
