    26
        -50.45822189  Gyration_radius:  2.51216559202 Dipole_moment: 2.950
 S           0.61883860234673    0.94482289147108    0.24995798542552
O           0.86057921268706   -0.46053825838792   -0.09479479897032
O           0.58654705332867    1.77768548247471   -0.94103848076713
O          -0.59677727735290    1.07562020194973    1.04792293312571
O           1.79245078334185    1.40686533037601    1.15556482330374
H           2.58417143799405    1.32143476811878    0.55412950781785
O           0.30925755370815   -1.20131708860232    2.41095806588514
H           0.69424954811059   -1.04383515812889    1.52901327379510
H          -0.11130572026747   -0.36324445217443    2.62965051887142
O          -1.32150603730501   -1.76196713119967   -0.75112161970018
H          -1.46730579888375   -2.32474664274362    0.06015477286494
H          -0.42678127755680   -1.35403061952265   -0.62381239515241
O          -1.70791423669555    1.83589835614074   -2.18483701513557
H          -1.98339107904412    2.75469753837281   -2.18883583753551
H          -0.79095771783273    1.82787492529262   -1.81023651943265
O          -1.47239761197528   -2.98366590299103    1.56066164525545
H          -0.85743539964011   -2.35575960969310    2.01246127090279
H          -1.09128925633446   -3.85645211499772    1.66665090833880
O          -2.57891255831589    0.30350264000438   -0.32674246921930
H          -2.10787868234654   -0.71281241114551   -0.57525190028511
H          -1.90899441017245    0.66087712348946    0.35139579685891
H          -2.41106025126396    0.88342720967055   -1.14284584174144
N           3.33830049097754    0.97944400433644   -0.89099549870551
H           2.57175001123876    1.39141523982048   -1.41484164373992
H           3.26099685584085   -0.02527510915781   -0.98892426404348
H           4.21676575543463    1.28007879729150   -1.29424320800233
