    26
        -50.46302185  Gyration_radius:  2.50655115673 Dipole_moment: 2.706
 S           1.37002756600133   -0.41907981409878   -1.46599159257535
O           0.13213064575093   -0.15306949924544   -2.17466446164540
O           1.68772695871157    0.64204605421645   -0.51181272798909
O           1.45726173463621   -1.73686435909260   -0.88079850990714
O           2.50846594431514   -0.35122241962462   -2.57356872831028
H           3.24239843269046   -0.77913482258195   -2.14460802366946
O          -0.15211006137049   -1.25380252020459    3.05714296461984
H          -0.20637244039536   -1.79529779694476    2.24706182230367
H          -1.03729826639945   -1.22357975003481    3.42410221223507
O          -1.94561347429891   -0.61225672620361   -0.47933773924485
H          -1.62673936746002   -1.36453616784658    0.04090947272371
H          -1.30247733716308   -0.51919167330075   -1.20284953971925
O          -1.73409382230533    1.81397895309224    0.60809301475481
H          -0.90505216320407    2.22472685408697   -0.51357265055461
H          -2.01490467725770    0.92322084708277    0.29514962529596
O          -0.41950288518582   -2.60556614805901    0.70282175668664
H           0.31865481872151   -2.28362392638236    0.12781245415380
H          -0.40837774901018   -3.56149905435297    0.63180630058015
O           0.44660240529295    1.14556017544601    1.91199688919066
H           0.33318215066380    0.32224732410760    2.42535043388966
H           1.03133203970741    0.92057555322691    1.17193790106295
H          -1.00548205120777    1.63573037577072    1.25914401903167
N          -0.13723366926164    2.30055390130606   -1.31973541827729
H          -0.33600544214164    1.56461540260254   -2.01869708217028
H           0.75194678121154    1.93872018251941   -0.89674772955890
H          -0.04846606102924    3.22674906451833   -1.72094465292037
