    26
        -50.45780650  Gyration_radius:  2.41896080563 Dipole_moment: 3.139
 S           0.62488859915250    1.64543511569383    0.33009073548940
O          -0.72321851894672    1.72190809178928    0.85930133032492
O           1.31799129316807    0.43948430504402    0.74245556949550
O           0.65749650864595    1.83827683619964   -1.11422602346152
O           1.44141676402242    2.85048148332151    0.93833899889817
H           1.10106526474809    3.58000205071841    0.43202901626356
O           2.80994751262140   -0.75329667532508   -1.08671329051606
H           2.33567060598329   -0.21120427277176   -0.42117509768837
H           3.51379024937474   -1.20304216095069   -0.61646864661274
O          -0.41850130293803   -1.59654120412630    0.60820833158298
H          -0.88045738124112   -1.53693853839151    1.47036003968476
H           0.28197829561710   -0.91958189274256    0.69534946610361
O           0.59616833023255   -1.93663375428148   -1.94218825590318
H           0.19879058672676   -2.13405424089112   -1.07818072349756
H           1.50463088192232   -1.60585603188525   -1.74672070340502
O          -2.16712792286300    0.04071641822468   -0.59319738287966
H          -1.74942968452266   -0.74191968366670   -0.16857934500062
H          -1.82961873029438    0.79331996981874   -0.06184341514629
O          -0.60117930360754    0.18596955742648   -2.53188285108619
H          -0.08658855884795   -0.73314577611455   -2.40792328716764
H          -1.40247558800488    0.12455453489469   -1.84895729786437
H          -0.01546135564260    0.90179094002592   -2.09097174691737
N          -1.55992147554072   -0.41460699229678    2.76104896189801
H          -1.09916230470538   -0.41098103004624    3.66266170303888
H          -2.55781016886084   -0.36809276975517    2.92811053293069
H          -1.29288257619770    0.44395573008768    2.28107338143921
