    26
        -50.45760689  Gyration_radius:  2.49505942587 Dipole_moment: 2.744
 S           1.07383047689605    0.84022740694009    0.40528028330582
O           1.79229060459725   -0.32154037623923   -0.08149463931489
O           0.17019613980431    1.36336783886833   -0.63423310048129
O           0.33603355529810    0.56105684379174    1.63138365149114
O           2.08686559634869    1.96400114947674    0.73785778019686
H           2.55110817529332    2.07298509466477   -0.13600354358035
O          -0.46480765553992   -1.89504912623914    2.23525215348571
H          -0.05948262714746   -1.01521076148615    2.07187803087790
H           0.11034455441233   -2.34231518755029    2.85731894477048
O          -0.00858504570063   -2.24623527047333   -0.43926179521164
H          -0.25363173141257   -2.37343784639324    0.49449139820987
H           0.71706261871485   -1.58771824268516   -0.41398729078843
O          -2.13474714448137   -1.38355942028798   -1.62396070520106
H          -1.94508538461645   -1.37025488235532   -2.56328904003878
H          -1.32289829509098   -1.77813717740523   -1.17945937290225
O          -2.28231325816483    0.39911940715845    1.94982149620711
H          -1.33690579823311    0.65261826042029    2.02109162597504
H          -2.29234076278425   -0.54812807574760    2.13177107252384
O          -2.25143100906941    0.89143975445181   -0.53842313313127
H          -1.22549700054363    1.16951113592217   -0.59377802497300
H          -2.29010949346592   -0.03082499400270   -1.01406117265179
H          -2.41271860508076    0.71722074578266    0.46541852375890
N           2.88956229540917    1.70284339624038   -1.72164878012984
H           2.75859073522148    0.71414325722885   -1.52689491392913
H           3.71469260898613    1.82476127180866   -2.29490484534543
H           2.07997645046691    2.01911580799740   -2.24016460306556
