    26
        -50.45813888  Gyration_radius:  2.47520443888 Dipole_moment: 3.008
 S          -0.18728591863439    1.26420647350927   -0.48436017145418
O           0.50170800934194    1.65997033546662    0.73416627998922
O           0.62988431469848    0.36220213286272   -1.28745742854242
O          -1.49192528868778    0.65926628626047   -0.18854040705513
O          -0.48944978871634    2.52987972517310   -1.32952162061789
H           0.41637882583024    2.90972243522628   -1.47162625442412
O           1.44648235279856   -1.60662454418501    0.24137383216401
H           1.15763820715925   -0.88568963226059   -0.36659785428102
H           2.34993130323298   -1.81808185277285    0.00333819710394
O          -1.85605748210813   -2.91484127455354    0.58553845544416
H          -2.72624662898826   -3.30354575401043    0.47963872474367
H          -1.61520497533382   -2.52844091589387   -0.29895877259854
O          -1.42406195266629   -1.57711091789763   -1.63536457645549
H          -1.59741173445714   -0.70149157649975   -1.23635802712900
H          -0.52150462327890   -1.50564971367497   -1.95956806402744
O           0.61057235172611   -0.34024885599865    2.41398700630926
H           1.02544951604086   -0.96980463804749    1.78078794824791
H           0.65106854579323    0.52717435482345    1.93994905513753
O          -1.77423837833078   -0.73694903392429    1.89789337092892
H          -0.75331761330077   -0.61607570700973    2.26630705714399
H          -1.78150701768203   -0.09045308376901    1.10542732664833
H          -1.82156797160788   -1.67181128770844    1.46412802991190
N           2.08571488629808    2.93479754811636   -1.26103228700347
H           1.98503749192196    2.68567777140998   -0.28170445631289
H           2.81021040000412    3.63533516355640   -1.35536697150243
H           2.36970315893717    2.09858656179320   -1.75607839236386
