    26
        -50.46798692  Gyration_radius:  2.46821142728 Dipole_moment: 4.249
 S           0.91267321113623    1.94086682586101    0.29390004041092
O           0.07134730823744    1.57750312804919   -0.85166632221678
O           0.08904203623030    2.38173466946640    1.40619276985092
O           1.86327078322531    0.91550841269349    0.63164206801930
O           1.74875915946853    3.20508883155399   -0.16361007527764
H           1.09892890897901    3.89834558509532   -0.11744601900181
O           0.38550559101414   -0.65420477882189   -2.42546014422511
H           1.13526762456249   -1.06581025579884   -1.96939343159756
H           0.30492151362233    0.22628364584317   -2.02180096012669
O           2.24233030774422   -1.39767381097670   -0.50673273554043
H           2.13799767882991   -0.50637116491178   -0.09507097518789
H           3.15783150534645   -1.64768690083778   -0.37610779443289
O          -1.63307823078138   -1.89036986157267   -1.23456405323889
H          -0.94905810524908   -1.55102051482606   -1.86453452733462
H          -2.03314175361511   -0.63815576920259   -0.60130938670750
O          -0.73732145742984    0.09284239843896    2.27823997175111
H          -0.62846880624670    0.02478606649104    3.22829219079082
H          -0.35321911197158    0.96677905489421    2.01608073244461
O          -0.01126253217808   -2.25617572415543    0.83899659635561
H           0.84023521877946   -2.08988924744377    0.39924807024751
H          -0.17066357832858   -1.48696818148413    1.40500318132306
H          -1.10797766311076   -2.27002670256166   -0.49036822335280
N          -2.11310033994858    0.33386050121776   -0.06924805272078
H          -1.93510682682256    0.17310384764625    0.93193497592673
H          -3.00365246737077    0.79277681522987   -0.22057721489152
H          -1.31205997414508    0.92487313005544   -0.42164067124927
