    26
        -50.45760688  Gyration_radius:  2.49509048457 Dipole_moment: 2.744
 S           0.61651200956498    0.87483749596060   -0.93701129044849
O          -0.80461474225591    1.11572265624769   -0.63175631195022
O           1.43519736378619    1.09700927307382    0.23909794795252
O           0.80095641313457   -0.45903102468723   -1.49589628543077
O           1.02420027195351    1.88318365216498   -2.04012662588171
H           0.88799540907275    2.75080342393359   -1.57135208253758
O          -0.91220688306168   -2.47104278024812   -1.49339475940009
H          -0.40078687562983   -3.02409463833265   -0.89083911982160
H          -0.29000684991031   -1.76165228086261   -1.76319957033916
O           1.61702301234435   -2.48780623000250    0.00629741308048
H           1.43887275120196   -1.71243674056807   -0.56999988207177
H           2.55370277241636   -2.67162608184320   -0.07560855557437
O          -1.75988819992519   -1.13161736228060    2.17526313050947
H          -0.75900345431608   -1.02964664055182    2.16049728510749
H          -2.08868200871883   -0.45401769150030    2.76791904645218
O           0.79411922177184   -0.79692371929560    1.99335897164219
H           1.13084009039908   -1.56089615047430    1.49227293216248
H           1.04684513975891   -0.01940412229924    1.45257294913892
O          -2.34095954648478   -0.78004976139416   -0.25506845846597
H          -1.73275230035394    0.06799118301313   -0.46433617671752
H          -1.88603379100484   -1.55061028266763   -0.76833071057664
H          -2.18673435097493   -0.95950649971081    0.75604848395307
N           0.52366726327913    3.72360537286847   -0.27261418393009
H          -0.47668790739065    3.63009216580164   -0.15064639691581
H           0.79853717724611    4.66442812888520   -0.02036995265434
H           0.96988803410338    3.06268866472350    0.35722219268217
