    26
        -50.46154441  Gyration_radius:  2.43334877333 Dipole_moment: 1.425
 S           1.81298341411861    1.00875157945473    0.52688992793234
O           1.30595747519380    0.56718407451747    1.82328151382820
O           2.55752026024923   -0.03510858977540   -0.14578476832840
O           0.76004641822257    1.58582077790037   -0.28861117641591
O           2.83542265866189    2.17911909109953    0.81071306596047
H           3.62297863463678    1.72139926472787    1.08644966351440
O           1.68567474239226   -2.16053928435921    1.19925397414998
H           2.11445051020868   -1.47466326447264    0.64856794528918
H           1.64110827669146   -1.77339003786518    2.07761308560717
O           0.36912555862612   -0.49186312416364   -1.86087998243552
H           1.25253989040558   -0.86247983027373   -1.94425130718187
H           0.50882774974295    0.35341048118033   -1.38409026147414
O          -1.87032158686648    1.77491547460602    0.15877067571065
H          -0.95135445317664    1.99654037852268   -0.08353854077012
H          -2.22379996152780    1.23315982617682   -0.60552851761522
O          -0.73771514794929   -1.88613448541488    0.16002276954519
H           0.10030659955018   -2.22526095953555    0.55533960562369
H          -0.44958578646597   -1.44341737156088   -0.66882113269916
O          -1.16231421210018    0.01186887347712    1.75061040443560
H          -1.57286985034783    0.80617889728002    1.13696684789545
H          -1.09551204267026   -0.82796608764849    1.11745862352357
H          -0.18894336813836    0.27812071082809    1.90036256571905
N          -2.55898937806890    0.10757105065231   -1.80046544068287
H          -3.17668290002714    0.41234247816249   -2.54145209063522
H          -2.92569264674136   -0.75622746060140   -1.41968013787409
H          -1.65316082452836   -0.09933248303476   -2.20919731263831
