    26
        -50.46125508  Gyration_radius:  2.41005280105 Dipole_moment: 3.132
 S           0.89131138646617    0.62852192515355   -0.15495261012298
O           0.18287132342595    1.49819182463492   -1.09963828024910
O           0.17537584661372    0.57504078402126    1.11925219740303
O           1.08127410455750   -0.70131866643283   -0.71262808795414
O           2.28994359311199    1.22924197193900    0.10874276038482
H           2.05013308005420    2.13553594210175    0.46354490054645
O           0.76954343037180   -1.69280869279443    2.47886161875877
H           0.55303348277329   -0.82649510700054    2.08563398004562
H           1.72394372740851   -1.71752039804560    2.55833278406336
O          -0.50028867669113   -2.65551651458910    0.25130183181427
H          -0.23713903891068   -2.75510665604972    1.17955607685863
H           0.18309313206717   -2.05351588750996   -0.10425954843524
O          -0.42334593832810   -1.75522074859323   -2.64292391553479
H          -0.68995576654229   -2.55994906075118   -2.18562287326258
H           0.33463508990931   -1.40490969012739   -2.13070932108378
O          -2.11163206695555   -0.58635710877835    0.44087453408096
H          -1.71643523381856   -1.49788979093257    0.40793637361987
H          -1.40591116659439   -0.04957100438573    0.86334739918248
O          -1.82540977902021    0.23353490898540   -1.88133439670472
H          -1.38122419662205   -0.57072835745249   -2.33818983572164
H          -2.10139309224530   -0.12137066680670   -0.89244634667078
H          -1.03069401347280    0.86586867163956   -1.66038996647056
N           1.03183784503335    3.33036147732924    0.92414245177158
H           0.48846678958874    2.83516391335816    1.62141942866603
H           0.48738567077806    3.33363682822833    0.06851930011951
H           1.18058044703876    4.28318010285667    1.23162954489523
