    26
        -50.46256832  Gyration_radius:  2.41372368172 Dipole_moment: 3.855
 S           0.08835099695134    1.27074223886403   -0.05160854460444
O          -0.06676989059101    0.57721660066384    1.23335791067330
O           1.27843168541874    0.78597147206143   -0.73625816354669
O          -1.10789531966684    1.12521569233107   -0.87054493979389
O           0.25063883448265    2.78119906683310    0.24240949724727
H           1.10164639113769    2.80841349460044    0.76058359787086
O           0.88673884386108   -1.77263752444757    0.49789144210978
H           0.57331736899721   -0.90994252440587    0.84669805590201
H           1.65836483606907   -1.55059256082846   -0.02988700494733
O          -0.87776232807763   -2.34219683721739   -1.39741193506791
H          -0.47151058157705   -1.75733204725526   -2.09262349199952
H          -0.22472102310170   -2.32416992343418   -0.65475774511498
O           0.20960207434864   -0.43695789179931   -2.84028165424840
H          -0.48854501717182    0.18409466721781   -3.06350134460527
H           0.72059300742758    0.01333639074572   -2.13446450360624
O          -2.04144491507323   -0.98743646199509    1.97128339947406
H          -1.34805937261851   -0.29780907990579    1.85042480579021
H          -1.57320144341128   -1.79168159389127    2.20915353803086
O          -2.62979947269556   -0.84722841642993   -0.51315316763600
H          -1.92950379139499   -1.59818132243570   -0.94443854524558
H          -2.57150304274798   -0.96332130242533    0.49768618653606
H          -2.13227310120999    0.03217452116671   -0.68970086056102
N           2.49403310718175    2.18411950606095    1.42354215997019
H           2.58134503253787    1.53287443602398    0.64892886637274
H           2.23163975007254    1.65701220741713    2.24634433681986
H           3.38828739085315    2.62711718249078    1.59032811418734
