    26
        -50.46125511  Gyration_radius:  2.40997939944 Dipole_moment: 3.128
 S           0.23562280790375    1.02530424411876   -0.32639367738165
O          -0.04337644897476    1.57417108087679    1.00447405331026
O           1.24746594126837   -0.02708444238054   -0.23866289869150
O          -0.98227183309067    0.53860247293218   -0.95527264392312
O           0.79998520676791    2.15674356778571   -1.21400478534606
H           1.60953205805450    2.43125292966851   -0.69074395691868
O           1.06628197499097   -1.73317979994166   -2.33628340250246
H           1.23900024304834   -1.13195075035544   -1.58750878796412
H           1.12064585869506   -1.19520718560591   -3.12708626339661
O          -1.31561144027735   -2.13173338229778   -1.04476496730670
H          -0.61011833865340   -2.45201113394341   -1.62833981657450
H          -1.26090326679733   -1.16142380797048   -1.15096822943791
O          -3.17348452732326   -0.19548882930374    0.37064098979374
H          -2.54958236714100    0.26592857964458   -0.22733035094305
H          -3.26159950839272   -1.08444581719214    0.01045060731208
O           0.01808816218088   -1.88108419353413    1.20722197823710
H           0.67425331938291   -1.29050957764141    0.77668925186202
H          -0.52928665149307   -2.20853065631016    0.44472146109131
O          -1.41513241142888   -0.12747041873279    2.21572275645795
H          -0.86930740031838    0.67060636445987    1.83473045567117
H          -2.24878580104127   -0.16369461700850    1.61860502242257
H          -0.80853615509084   -0.97326085953060    1.90426307289650
N           2.66862087846430    2.36170247104474    0.55494863680097
H           2.95080865473731    1.39100891318208    0.48552354762035
H           1.96833915689442    2.41718146783833    1.28640809539315
H           3.46935187762904    2.92457336019742    0.81295985151650
