    26
        -50.46154439  Gyration_radius:  2.43327654729 Dipole_moment: 1.423
 S           0.01411914868958    1.73052290176750    1.25959569619878
O          -1.25306590682714    1.09340213320459    1.60735328150524
O           1.12510583325436    1.15698910706180    1.98978565652072
O           0.21942478704502    1.75964788276599   -0.17701495322925
O          -0.09283784528737    3.23933462650723    1.71521077093395
H           0.05914759546323    3.19711052377601    2.65376550159823
O          -0.03114301916654   -2.01477563957757    0.26220021771480
H           0.00847332170113   -1.92940048778272    1.24438445392727
H           0.73136522067807   -1.48212046056622   -0.05532870183206
O           1.91785951448244   -0.24938386563494   -0.31981265687751
H           1.36574524608488    0.56037636961587   -0.34862748065904
H           2.41135610118467   -0.16713037160210    0.50143910659285
O          -1.23817870314951    0.70319453634854   -2.15481542102261
H          -0.57397099643280    0.06584569133941   -2.54888446047420
H          -0.71232042355331    1.32748918845132   -1.61979997041788
O           0.02796522478001   -1.14140850070665    2.76462031066062
H           0.54366804502141   -0.33031073522839    2.58093279952026
H          -0.85974221732073   -0.82646439661570    2.95485687717580
O          -2.02358125033636   -0.54399039313671   -0.16231981760746
H          -1.83865226607704    0.14235156852642    0.56936917679914
H          -1.79794552897874   -0.02542340071193   -1.08800189128749
H          -1.25228102875373   -1.25149681443167   -0.04000226490116
N           0.60694623201081   -1.07648192626799   -2.87622959045425
H           0.96997905455528   -1.08649609100307   -3.82046393196222
H           0.30539402184579   -2.01506763752842   -2.64431680076776
H           1.36716981909821   -0.83631380862794   -2.24789589764972
