    26
        -50.45198920  Gyration_radius:  2.60475098903 Dipole_moment: 2.743
 S          -0.63028927485896   -0.32971058003517    0.04583041977541
O          -1.15479434239356   -1.59055156668407    0.67670353652031
O           0.81641354264010   -0.30385712635357    0.11067221010847
O          -1.07214173503352   -0.45231760773264   -1.41718856637028
O          -1.24237190371261    0.84299681716553    0.62862704884204
O           1.90959228889034   -1.06560821650448    2.41522676647435
H           2.55932629487499   -1.74141466762772    2.21382428252598
H           1.61816967489298   -0.69706245505415    1.55594283952947
O           1.45694713478431    1.62668722811937   -1.72387478066398
H           1.54704840674269    1.03145515726159   -2.49859904199900
H           1.42326211905117    1.02638011081922   -0.96186095630244
O          -1.58819534474714    0.79073731767263    3.26499774156092
H          -1.44266936315365    0.94806274955708    2.30879660546766
H          -2.52376167965683    0.92988615401321    3.42292057188090
O          -1.11031165092499    2.00451888314324   -1.84591686756561
H          -1.35317568354717    2.21016333575891   -0.93432751115606
H          -0.11179084770696    2.07496093407712   -1.88397323336434
H          -1.18159501931330    0.53947274154771   -1.72266765866749
O          -0.57585306668624   -1.62204267709683    3.05894869403106
H           0.40428670673138   -1.47852071712481    3.00859999009597
H          -0.95931512720975   -0.75186664987032    3.34297847508424
H          -0.91955758095089   -1.66874608069522    1.77703618664411
N           1.14462657503234   -0.36579976327113   -3.58714522344653
H           1.83692642930320   -1.08591950229519   -3.74977420909019
H           0.74815529538584   -0.10583520726440   -4.48151805380380
H           0.40106815156981   -0.76606864152124   -3.02425927611276
