    26
        -50.46154413  Gyration_radius:  2.4333687634 Dipole_moment: 1.438
 S           1.81249845875138    0.39388965007466    1.06858225524757
O           0.92311666651159   -0.09408606267069    2.11909054321772
O           2.44184635762467   -0.69175024488153    0.34618648029959
O           1.14364192761508    1.35125589960384    0.20668846034135
O           2.97382018142561    1.18936333822191    1.78556811646456
H           3.55203918193230    0.50093923645583    2.09783309860821
O           0.81790439972046   -2.69176686255453    1.01699489709798
H           0.65195883161085   -2.44907700480537    1.93185067666809
H           1.50923437933842   -2.06743902168510    0.71736690982457
O           0.68432028444952   -0.27373948142383   -1.81573300303662
H           0.89200072039333    0.41821505987701   -1.15289358980981
H           1.45509991531590   -0.84864377537342   -1.80346699718847
O          -1.40538471068557    2.16043697108376    0.16791794439790
H          -1.67763530667093    1.85933860401571   -0.74749015248529
H          -0.42949547487162    2.16417467690203    0.16012816497854
O          -1.15926844895552   -1.62232078247553   -0.38858191559248
H          -0.53905330621046   -2.23007826768117    0.07993518972324
H          -0.58878811369070   -1.14789210410461   -1.03311889287400
O          -1.51544912657185    0.04592493954306    1.45620227947151
H          -1.48924709988415   -0.67111284803066    0.68437789544895
H          -0.57214836209222    0.01660388920786    1.84375819369623
H          -1.57732978944929    1.00692149384702    0.95727035732709
N          -1.96046062609308    1.06671140770837   -2.19597459631863
H          -2.29672571629070    1.63805876955050   -2.96016379425389
H          -2.59302847034213    0.28351508414881   -2.08593976070736
H          -1.05346675289233    0.69255741544547   -2.45638875056118
