    26
        -50.46961824  Gyration_radius:  2.44250040812 Dipole_moment: 5.992
 S          -0.04289913863658   -0.35657197503947    1.90442027415564
O          -0.67092318778567   -1.47145271156125    1.21699688132987
O           1.39377840009432   -0.52590825135235    2.01964388614125
O          -0.39599086958332    0.93288117258133    1.33232628134167
O          -0.62830612295067   -0.35280445454483    3.36898521203160
H          -0.45768214132122   -1.24927721316154    3.63528987054120
O           2.86451838418607   -0.26205269235552   -0.08593439270386
H           3.76527349401276   -0.52440599436182    0.10863308585892
H           2.34876088650861   -0.39932517891550    0.75282262990193
O          -2.83235579107787   -1.53041887069512   -0.40406978411935
H          -2.14276256606352   -1.58452854351975    0.28228624947736
H          -2.48424711340927   -2.01101462580535   -1.15835510162414
O          -0.36451340075984    0.89002667675988   -2.37110316098815
H           0.57658749244357    1.52959478131026   -1.44584166986878
H          -0.13202608892446   -0.04371659210188   -2.17963766941425
O           0.48908607066267   -1.37635996338454   -1.20868804649535
H           1.42039623032791   -1.20855737066693   -1.01945538721366
H           0.05927590110832   -1.49439891285919   -0.34153790752129
O          -2.32004210722374    1.12511667637106   -0.63855837263115
H          -2.73071161499171    0.23855863315873   -0.61285763647751
H          -1.77579227771542    1.16879288504730    0.16382943946371
H          -1.21334381358845    1.04313141735203   -1.87466733156110
N           1.19633387997684    1.83032979818805   -0.57678831337331
H           2.02765323867912    1.21767444599550   -0.53189957858022
H           0.60300671853996    1.60278896656293    0.26113267388614
H           1.44692553749533    2.81189789699832   -0.59697212155566
