    26
        -50.46206271  Gyration_radius:  2.40741105078 Dipole_moment: 2.083
 S          -0.69416175684121    1.10641817057861    1.23919831402474
O          -0.83504386191351    1.53373251560462   -0.14922376199551
O          -1.50005897463690   -0.07065948395208    1.51355392257490
O           0.69260234244777    0.94620358341027    1.62059771642234
O          -1.28077444846668    2.26562179474231    2.13442540551908
H          -2.21527644161815    2.16826515971106    1.98754829047351
O           0.33848331358405   -2.00991925627052   -0.83693241434601
H           0.62724186254879   -1.98087393522444    0.14218151400196
H           0.64851581559466   -1.07147558808147   -1.25363746682613
O           0.96449887491430    0.26862726060505   -1.61929797985839
H           1.84109536544855    0.45641638906398   -1.18122632900120
H           0.32100513446953    0.82635320448353   -1.12795680195679
O          -2.34431399554210    0.52367773396287   -2.11291356750223
H          -1.89175942383933    1.03276435002231   -1.41208629773835
H          -1.76221539639417    0.55411808627477   -2.87523135980094
O           0.78870946277664   -1.66600087782936    1.65903229219881
H           0.86327078369433   -0.68557611611324    1.71847626035568
H          -0.05630403280587   -1.86334972468678    2.07498784751103
O          -2.10262224680864   -1.61112836896523   -0.53892551492917
H          -0.72599928252088   -1.94824232493898   -0.78840911847630
H          -2.01979090799968   -1.09013927415259    0.29214468960994
H          -2.36482518633132   -0.95115403457745   -1.22030513217266
N           3.04538153743261    0.75636326682213   -0.04873353272659
H           3.65186377486829    1.55570606708476   -0.17881609103446
H           3.61598921848447   -0.02154209054456    0.25770450283079
H           2.39448845947058    0.97579348297839    0.70384462285644
