    26
        -50.46206283  Gyration_radius:  2.40753100876 Dipole_moment: 2.085
 S           0.94137077510440    1.38781510106167    0.65398157074217
O           0.54068518019844    1.49060857747209   -0.74560675704513
O          -0.20831358970479    1.46165169212787    1.53898358823259
O           1.77168954917139    0.22793983083368    0.89806581442450
O           1.82678904182736    2.65510695133292    0.96903642315744
H           1.17191285608473    3.34392596030175    1.00135326276111
O           0.01475854900813   -1.25775342049282    2.13896139620139
H           0.76897375135480   -0.77810159904575    1.72496421201292
H          -0.40758465875089   -0.59628436038783    2.69587105770970
O          -0.00014798583646   -0.93301405684941   -1.65895535418136
H           0.81593806699364   -1.47421184687170   -1.46799507003857
H           0.25133312633027   -0.01539172062422   -1.41155619328032
O          -1.88494589048402    1.83641084839786   -1.81900849019137
H          -0.96331204455370    1.86458603598761   -1.49526472560828
H          -1.87996161370976    1.23969497427853   -2.57051949477206
O          -1.59247088953644   -1.51474382963126    0.16390193379438
H          -0.97353380591221   -1.56325173468767    0.97478603194718
H          -0.94970759794289   -1.33510777399546   -0.67554439500335
O          -2.53965448056976    0.76056773319455    0.52794126073575
H          -2.12049417249330   -0.59769685561592    0.30364359974223
H          -1.75721222667684    1.12135426570842    1.00396806914230
H          -2.52876800193667    1.21282657355096   -0.34605066964979
N           2.20590161231707   -2.10011761459268   -0.76065101823464
H           2.33157314543927   -1.31479884029510   -0.12370156147893
H           3.04421606035787   -2.18364815952360   -1.32099482986649
H           2.12096522391944   -2.93836673165872   -0.19960964124323
