    26
        -50.46256838  Gyration_radius:  2.41381902672 Dipole_moment: 3.852
 S           0.96440181453522    0.68589371323638    0.47321202713012
O           1.41376001337053   -0.69653612587538    0.55685095264501
O           0.43175012875466    0.95836328867198   -0.86775802520884
O          -0.02024901926122    1.00124362679468    1.49971978217253
O           2.17062309331263    1.62748186128970    0.70351129888554
H           2.81340038817722    1.32741571061206    0.00339651183860
O          -0.32098079703742   -1.70649159880426    2.29896373206980
H           0.39592971634745   -1.44210937203303    1.68403366925900
H          -0.37876316939609   -0.98073422961498    2.92572401526687
O          -0.61525760838527   -1.41964559834182   -1.33578247623663
H           0.05392412257417   -2.02975929834368   -1.01443748471862
H          -0.20118939990885   -0.53387211157901   -1.24523932917084
O          -2.02313921252728    1.64383197891563   -1.49645283214142
H          -2.25702200175390    0.96425837769700   -2.13391266862183
H          -1.05341058879961    1.55122420685250   -1.34776764047806
O          -2.35993054691619   -1.48529216862177    0.65919504474340
H          -1.69754853429324   -1.71675067404151    1.36480805025729
H          -1.84917588579760   -1.55817811233157   -0.18478897298630
O          -2.47094893927402    0.96460276715676    0.92750110556763
H          -1.50591347126638    1.09028942958348    1.25151814157202
H          -2.45756124674785    1.32285204697263   -0.02657382504747
H          -2.53994614163289   -0.14317777402247    0.83410019865038
N           3.37900967929614    0.34733002387720   -1.21642637055954
H           4.32944534494820    0.10892586852469   -1.46862716202951
H           2.86538513430542    0.57726337493479   -2.05723873404833
H           2.93340712737598   -0.45842920150706   -0.78752901882034
