    26
        -50.46206271  Gyration_radius:  2.40741955509 Dipole_moment: 2.080
 S           0.66978998748999    1.55295187805648    0.61782151879111
O           0.26387451968371    1.54559397948877   -0.78406224893146
O          -0.47814144638168    1.43765039299932    1.50057283423856
O           1.69682285686251    0.57087300422039    0.89164731325603
O           1.30724683501377    2.96826341676506    0.90034904899532
H           0.53745388109648    3.52654599787343    0.91231033333087
O           0.23475590000339   -1.18001242308399    2.16854882741043
H           0.89059768684220   -0.58082238091377    1.74289903366394
H          -0.30410796053358   -0.59345836168641    2.70852214266240
O           0.17844283662606   -0.95800234602569   -1.63586980363937
H           1.07832395276154   -1.33665710382140   -1.43028386594106
H           0.25733889403916   -0.00400360446412   -1.41185942694242
O          -2.18015498959576    1.41651577288881   -1.86325774695967
H          -1.28026667570288    1.61987528425464   -1.54083960194745
H          -2.06357274439228    0.81294328257333   -2.60011736003535
O          -1.28959110741236   -1.77536392291424    0.20082567705791
H          -0.68671641126399   -1.50199208827010   -0.64288947633610
H          -0.67567157057649   -1.68995963019837    1.01249397331232
O          -2.63788350317584    0.29675670367610    0.50935354782202
H          -1.93659046221743    0.80614659235945    0.97588828346240
H          -2.70604742554539    0.72186057610297   -0.37565036190006
H          -1.97685388311128   -0.96708540250063    0.31810145997387
N           2.55399706052315   -1.68231585692050   -0.70445235180761
H           3.39778767206337   -1.62935601400009   -1.26032704588701
H           2.61656976428925   -2.50670072926181   -0.12039337918328
H           2.53259632259580   -0.87024701713035   -0.08933131448359
