    26
        -50.45561715  Gyration_radius:  2.45953088428 Dipole_moment: 2.294
 S          -0.67701942721409    1.85614550289531   -0.27269542865429
O          -0.92318827003653    1.35090789446324   -1.62465565209409
O          -1.53714505778004    1.21831335241089    0.69981853998907
O           0.72743706964164    1.82630497204485    0.07740154819240
O          -1.08855103666846    3.38508430794810   -0.30426370070717
H          -2.01270700577194    3.32890900491350   -0.52287756553279
O           1.14412046016137   -1.62609709781141    1.49579982139582
H           1.56336549979003   -2.25017526514981    2.08889676629682
H           0.96392146722746   -0.78688928251251    2.02243643559603
O           2.14087145808714   -0.29070657585962   -0.63646008417982
H           1.86951513234652   -0.91408638374191    0.06791403331431
H           1.80214938355164    0.58291217295752   -0.34255733356594
O          -1.06736303060809   -2.21743502876091   -2.12006849941813
H          -1.89868973774572   -2.05513029173710   -2.56934591333826
H          -1.22342712439209   -1.98676017766184   -1.15767934134340
O          -1.35443626919268   -1.42141778116328    0.32977754352987
H          -0.52115440729675   -1.62124051346553    0.78711807758515
H          -1.51057614738791   -0.46432697279764    0.46087093887702
O           0.58921877182048   -0.37178893515830   -2.59373739108914
H           1.32913047501273   -0.42710305598218   -1.84075693239318
H          -0.02617424979687   -1.19999766182067   -2.48566283185352
H          -0.01388872565004    0.41576090357216   -2.27670618208649
N           0.53473929770686    0.65724897733244    2.65237862350813
H          -0.47234905580213    0.66258135779849    2.76979072601759
H           0.71243358701185    1.24282388080771    1.83590536885903
H           0.94976695295152    1.10616268645387    3.45935843310559
