    26
        -50.45790575  Gyration_radius:  2.422326933 Dipole_moment: 4.326
 S          -0.85505707439693    0.13458381994786    1.60461636100682
O           0.46388562280775    0.73821152020236    1.71387619362931
O          -1.81029845623804    0.98867345977580    0.93068888660488
O          -0.77354240168711   -1.19333358511527    1.01089765183571
O          -1.41519731349411   -0.04420586062463    3.07112472684156
H          -2.18028390796154    0.51645146121728    3.01079483775897
O           1.00933915638658   -1.30304477529099   -0.93193781433637
H           1.85054421939222   -1.07973791168783   -0.46095785974214
H           0.35010387994915   -1.36142565295507   -0.20415844479924
O           0.87066723625447    2.38623735960979   -0.25716715034401
H           0.64707296868498    1.83565958469823    0.53312337175078
H           1.76112324372806    2.71383442036441   -0.12086578968035
O           0.23505577698378    0.75359273720300   -2.13408975090173
H           0.60039331814287   -0.14303735064803   -1.71209828294024
H           0.51829396036902    1.48367626530706   -1.49461581077376
O          -2.22782697628243   -2.03323087452409   -1.06727620686222
H          -1.81772034214650   -1.82828311881373   -0.20343362929859
H          -1.59408110374046   -2.58207203052960   -1.53450030949259
O          -2.17960087615770    0.56197484048330   -1.63057076611727
H          -0.85051047726417    0.69870031487537   -2.01504564147212
H          -2.36484946112430   -0.40569866809766   -1.58652018532005
H          -2.15894676270698    0.84903493472230   -0.68652029362351
N           2.89650738565603   -0.50765068664714    0.79221786574909
H           3.21189945066242   -1.27969284483817    1.36609184438087
H           2.14459948401359   -0.04058587880324    1.30073605236876
H           3.66842945016981    0.14136852016834    0.70559014377754
