    26
        -50.46123393  Gyration_radius:  2.4100742518 Dipole_moment: 2.654
 S           0.63474970286097    0.16280413660039   -1.67970649494660
O          -0.80913043857800    0.10921608663901   -1.83884601468558
O           1.02690949803575    1.17840574433157   -0.71667314504587
O           1.21020296674914   -1.13758207659712   -1.38998643315147
O           1.22159664986731    0.59854899463304   -3.07948158990786
H           0.69794191469641    1.36623073946139   -3.27997997579510
O           2.50254566626353   -2.08455149697240    0.76636488026394
H           2.19950705855248   -2.99138908363970    0.84164820592530
H           2.22045805150272   -1.77694645442870   -0.11538775082237
O          -0.93349644855971   -2.41226992706231   -0.61252312156670
H          -0.08548358055279   -2.03854516744920   -0.94679802252962
H          -1.59529252683203   -2.08678737786293   -1.22987056351060
O          -2.27387932740546    0.87097961036431    0.21189600572808
H          -1.83254214820638    0.65191584940022   -0.64204224126563
H          -1.79022828001000    1.67869926424119    0.55397827677878
O           1.03279590709499   -0.02846593621287    1.64601282891888
H           1.10495538262641    0.48552439102291    0.81213613935504
H           1.67272000133725   -0.76501557433034    1.54120993350571
O          -1.28467573686720   -0.99022755636967    1.49386969211755
H          -1.82158260755239   -0.15975832360012    1.00555314660000
H          -1.18011899146468   -1.67652912524429    0.74885316625314
H          -0.32396808606004   -0.60638524078011    1.66311818816160
N          -0.63530163952087    2.78298314917756    1.01907517409462
H          -0.28970086506055    2.62378646949094    1.95745969179451
H          -0.75647884599034    3.77960076210443    0.89501145885137
H           0.08749672307359    2.46575813307603    0.37510855487786
