    26
        -50.46123390  Gyration_radius:  2.41011069807 Dipole_moment: 2.656
 S           0.47288325676241    0.17538160121750    1.73084077750592
O           1.31512439027005    0.82546570330205    0.74054871910376
O          -0.89342898727369    0.66829948088851    1.67404829514936
O           0.54397513867908   -1.27261335762925    1.66474869538608
O           1.03266492064882    0.57589699167917    3.15200602006861
H           0.81860441221546    1.50125100297635    3.19238912096500
O           1.10969212919199   -0.64496779142483   -1.45836388614554
H           1.41165266965241   -1.53730636087409   -1.18356871612959
H           1.28357229750128   -0.07176075095971   -0.67997960147041
O          -1.82964784076365   -1.79460124567167    0.70669702503028
H          -2.38015435808814   -1.16408187810151    1.18044439350536
H          -0.94245443862676   -1.70433443436566    1.12533108555634
O          -1.74470937912483    1.58681901195825   -0.64171529982930
H          -0.96045355600532    2.10552801730647   -0.98706381362579
H          -1.50853292310846    1.35535523748293    0.28705619006959
O           1.60047572993876   -2.93444262435869   -0.16237578740791
H           1.36539645722713   -2.41691653090070    0.63048997741401
H           0.98801164451034   -3.67200782557175   -0.19005400102219
O          -1.40172248985216   -0.67603843966637   -1.56226105122883
H          -1.63416284043590    0.35542975179245   -1.24826670303468
H          -0.35525786905858   -0.69302155756423   -1.62203815004900
H          -1.64019840659481   -1.23338205519886   -0.74404366377703
N           0.56588146174899    2.63810071201517   -1.38190355345881
H           0.92081821144950    2.22577066275102   -2.23593431302417
H           1.04624316411639    2.18383526802632   -0.60690660047758
H           0.81572719501931    3.61834141089098   -1.38012514907332
