    26
        -50.46407696  Gyration_radius:  2.36399148083 Dipole_moment: 3.021
 S           1.36040606171159    0.16475599267089   -0.28855748057598
O           0.28152971319282    0.39004744762934   -1.26332198836687
O           0.84378565482713    0.31073320085296    1.07363233551698
O           1.96262985546629   -1.13784536502524   -0.49114289244624
O           2.42691206267920    1.25695243646978   -0.52117925226971
H           1.91822360434870    2.09150961144911   -0.29087631788319
O           0.97360158112393   -2.44645650178604    1.53048060687648
H           0.95782443954221   -1.72631428122829    2.16995526189326
H           1.48447161104018   -2.07198842929162    0.76953348387687
O          -0.32261158405346   -2.05174915135735   -1.87238996415900
H          -0.13566343789133   -1.08305986955773   -1.78167852459965
H           0.55205036060941   -2.45451415966878   -1.86414329724278
O          -1.95160739129182    1.67380656424445   -0.85403219946317
H          -2.51231464099937    1.54010877570217   -1.61989121563715
H          -1.08459310369667    1.25922011047168   -1.07559575957175
O          -1.30398193543703   -2.43391718344530    0.42919540867222
H          -1.00455941523393   -2.35246055292223   -0.56133541693663
H          -0.41552294020728   -2.57493524777591    0.95038608302193
O          -1.72384418450644   -0.09384814923418    1.17705412171072
H          -0.76019289912656    0.12093528107018    1.25476741853156
H          -2.05433190883829    0.53924763392683    0.50734325914909
H          -1.61741709930375   -1.46149315159732    0.73555471431396
N           0.74225061542738    3.05509934026626    0.32664837181995
H          -0.09328092002434    3.11795281788003   -0.24295615489996
H           0.92771557437266    3.96715914233904    0.72410551019544
H           0.54852032627038    2.40105367791505    1.07844388844265
