    26
        -50.46220845  Gyration_radius:  2.42236292065 Dipole_moment: 2.963
 S           1.04662255118582   -0.21817400989628   -0.65908696668513
O           1.46529640824110    0.24853260370548    0.65547696442523
O          -0.01123733459710   -1.23030210056672   -0.52518608822054
O           0.60252118634583    0.87932156584261   -1.50774261971302
O           2.24886502401212   -0.88458543612040   -1.36437237091613
H           2.58024301089514   -1.53112143289557   -0.67657168578986
O          -0.47197431751243   -0.70058539228620    2.18327190013536
H           0.29982796219420   -0.28908242688098    1.73690036694318
H          -0.66056410885987   -1.48092230575296    1.65303846718191
O          -0.27070280117775    2.54798945736290    0.35270884463905
H           0.40596752768368    2.52548766856042    1.03399591779082
H           0.10767757203211    2.02147649489523   -0.38212189100209
O          -2.23815695696328    0.99439005015092    1.20060770305555
H          -1.61266915785768    1.71304162256000    0.93088481890568
H          -1.69631111291471    0.39209913364842    1.77168551978307
O          -1.72628145135264    1.39715768487320   -2.60647213363671
H          -1.89491354756369    2.29980113236154   -2.32441629582771
H          -0.77749538072670    1.22749711427826   -2.41404341150913
O          -2.34407946529283   -0.36964763626020   -0.86058794947915
H          -1.41314368479535   -0.81636859842782   -0.78095362435235
H          -2.41160236394229    0.23459130453219    0.05949969721784
H          -2.24983446584815    0.29499703384560   -1.62744306047315
N           2.77375227979854   -2.26793094906556    0.78053311422106
H           3.67324717011611   -2.55547125718030    1.14325088180951
H           2.10302346291399   -3.00334804912761    0.95989291272798
H           2.47192198347846   -1.42884324236931    1.26725097864820
