    26
        -50.45852415  Gyration_radius:  2.5091672507 Dipole_moment: 1.943
 S           1.23191081404663    0.50925642805533    0.48466058051518
O           0.97698334971005    0.55981257104086   -0.96448710214044
O           0.34493523080279    1.42586883687496    1.18812711148575
O           1.10694846052157   -0.85144929477074    0.98404923825839
O           2.69722501972984    0.95023685418737    0.70912131770350
H           2.67445774030437    1.88689911071851    0.36646270689089
O          -2.09999061220559    0.56323028212499    0.81376232874787
H          -2.02092424986378   -0.30244331645427    1.26602253938806
H          -1.27091841979804    1.03800472928658    1.06150201140687
O           0.05903933991454   -3.01830945253220   -0.19238035142082
H          -0.53273170152066   -3.19087923971341    0.54731805777056
H           0.62140202352363   -2.27774588417763    0.10948641335088
O          -1.39579924088033   -2.15170788844829   -2.18043622544201
H          -0.90489152891512   -2.32677652812387   -2.98517090979162
H          -0.85889223583638   -2.54450529043359   -1.43667993926257
O          -1.16297578123414   -1.60451228436674    2.11257170218333
H          -0.27830689479309   -1.31850053772326    1.78966189269863
H          -1.14511212770248   -1.49820454151269    3.06479493783779
O          -1.40951805360373    0.31499393445919   -1.57550266446673
H          -1.48650677770149   -0.67284358762677   -1.85757301492195
H          -1.84230442732073    0.41393299689191   -0.61565645301180
H          -0.38023051835323    0.46625319928970   -1.38455185454527
N           1.96868548280163    3.25765260157236   -0.24051960670890
H           2.22884494896570    4.23305236378366   -0.16969288733793
H           1.13130391614172    3.09217549042335    0.31034671796406
H           1.74736624323231    3.04650844720809   -1.20523654716395
