    26
        -50.46004792  Gyration_radius:  2.42144439669 Dipole_moment: 1.660
 S           0.19770483577856   -0.81836029357856   -0.24209104511562
O           1.54526967063145   -1.03121836239128    0.23570137405812
O          -0.62754699632326   -2.12875980202572   -0.09715376005820
O          -0.50208620009335    0.19591294582504    0.56274224079973
O           0.13823228343219   -0.49225267367410   -1.66127502268156
O          -0.18556109482292    2.59847164398040   -0.49424608360824
H          -0.37241321851202    1.88819545221080    0.15427662951743
H           0.76805477008910    2.41440955105587   -0.74212653986681
O          -2.84991248765326   -0.00361935834839   -0.58295991077845
H          -2.94542198244398   -0.93278770819710   -0.80411607835632
H          -2.07054298860210    0.04714571547389    0.01494631274160
O           1.00306926037959   -0.58917555013642    2.78555395918731
H           1.42439864865951   -0.71468846624105    1.91107910009560
H           0.32241493586098    0.07253083976870    2.62690308087453
O          -1.42121748124862    1.35205951721671   -2.23114386525409
H          -0.74155011395623    0.56421094752239   -2.16612559797541
H          -2.19980055468686    0.96575250233226   -1.71404011889745
H          -0.93490459194489    2.05944021077808   -1.54019778260621
O          -0.23531520878116   -2.87265536500864    2.34309564822757
H           0.43708027732463   -3.55707307472207    2.36543441552413
H           0.19595985448993   -2.05143525687946    2.69469644959137
H          -0.53082510209910   -2.46507472551182    0.84287997526763
N           2.18503738542751    1.55226103009446   -1.01538738740620
H           2.29321515851685    1.36163150224045   -2.00439126072465
H           2.04590985262764    0.65042195871057   -0.56336142248423
H           3.06075108796481    1.93465681951371   -0.67869332008075
