    26
        -50.45852410  Gyration_radius:  2.50930533142 Dipole_moment: 1.944
 S           0.45913660043844   -0.44468490089860    1.26598403334381
O          -0.48942699583964    0.55569506579548    1.73643013878691
O          -0.21328000814483   -1.41548476418215    0.38681753685905
O           1.59426601988628    0.16465957842351    0.59028206225651
O           1.01103697778024   -1.22897395174283    2.47933117456769
H           0.16975148541397   -1.57971062977478    2.88505270984524
O           2.26261151102734    0.13395485371052   -2.00378483250057
H           2.31772827888163    1.09418616182917   -2.04892688345375
H           2.11309069221597   -0.06014067170214   -1.05731290538579
O          -1.31425292146810    1.87780390833753   -0.36899590154176
H          -1.13185390955463    1.50355546591098    0.52594452097860
H          -0.45874978647374    2.27156395104040   -0.63949838523153
O           1.29426547106832    2.53251726754276   -0.54882977804485
H           1.45648793420760    1.70126149326575   -0.04751432507449
H           1.54719250185438    3.24859049123506    0.03566062520155
O           0.12287767619459   -0.59472853274565   -3.31171590795360
H           0.97152779336588   -0.31045438381056   -2.87054001683994
H           0.25386825912932   -1.50582915077520   -3.57998536595803
O          -1.55467554228571   -0.37847625018083   -1.41707269277649
H          -0.94183168275861   -0.44452083305019   -2.24258080584668
H          -1.03543757312796   -0.88686836365488   -0.64852502392733
H          -1.54359476074192    0.62464224432462   -1.08258750668462
N          -1.46915829644500   -1.75646812709627    3.05066237370700
H          -2.04227510697810   -1.96600343788050    3.85790316763432
H          -1.75974637187620   -2.34525019847618    2.28057674500985
H          -1.61955824569082   -0.79083627542643    2.77322525304567
