    26
        -50.45852423  Gyration_radius:  2.50903215694 Dipole_moment: 1.946
 S           1.30643740591372    0.30450978846629   -0.46147475891193
O           0.21860996058792    1.24862746750068   -0.76635910478992
O           1.59350814568078    0.30523809820327    0.96650442055141
O           0.98401462546037   -1.02900876603184   -0.94566693145505
O           2.55971967199166    0.78378843287483   -1.23039684851519
H           2.71402701041515    1.67800908077117   -0.81556562679283
O          -1.35508273595431   -2.01877021836477   -1.79685149388841
H          -1.31705357219451   -2.76101617509451   -1.18465706731429
H          -0.49253323540661   -1.57001103359761   -1.69408014121579
O          -0.02430642865527   -2.80144694223657    0.73791607230573
H           0.44184914694153   -2.19373900220915    0.11974712693729
H           0.65371408025560   -3.35583791390018    1.12687897833737
O          -3.20807911679911   -0.38837540850782   -0.94353865417102
H          -2.54824805085673   -1.04881094307238   -1.29589096717674
H          -3.49876048201458    0.12674001359129   -1.69811653815392
O          -0.55119281047839   -0.58568535492642    2.17884550204804
H           0.33164910345341   -0.23344906992669    1.91317394334922
H          -0.56914337829326   -1.48923707152856    1.80004992002991
O          -1.78455485461511    0.97104596799715    0.66150641979746
H          -0.94876718597658    1.17161462497131    0.04501519011796
H          -2.43273094697746    0.43526726178389    0.06644755369818
H          -1.38716218008086    0.31189136841705    1.38678288919325
N           2.44747665998394    2.91293751939037    0.25588633691154
H           3.06590772845241    3.62162181641554    0.62922976746219
H           2.21318401748521    2.25059731562575    0.98966919796723
H           1.58751740167759    3.35349916336244   -0.04505520637193
