    26
        -50.46154483  Gyration_radius:  2.43318582158 Dipole_moment: 1.387
 S          -0.78969253889033    1.38436756266414    1.42895453829074
O          -0.70250251687491    0.35014647684551    2.43838194225725
O           0.44587774680154    1.58019441634775    0.69314274330998
O          -1.92194977985605    1.17381994816837    0.53064530688660
O          -1.06037390200168    2.74006268002681    2.19310757933989
H          -1.70898753551596    2.49961491525049    2.84676007654608
O           1.43750643178554   -0.83621260105383    1.04101947151381
H           1.18822853594320    0.10655183539978    0.93970042503342
H           1.12784673056615   -1.06703165516250    1.92168304098636
O          -2.21523761178260   -1.52560202966176    1.30778925440450
H          -2.89229904183797   -0.96070561173425    0.92584225518869
H          -1.66884994137989   -0.92288220093333    1.85170246864601
O          -0.41494497854750   -1.89474335072934   -0.60293399820487
H          -1.13592347424637   -1.99372543569702    0.06332706994350
H           0.36320572392720   -1.61159797532671   -0.07356001476113
O           0.94006644349334    1.43402983693388   -1.93112091935951
H           0.92324468856700    1.74145734138055   -1.00500449793453
H           1.60097188991532    0.68188255524081   -1.94972350420773
O          -1.20876708592682    0.22046646378529   -1.70282995513224
H          -1.58685515672601    0.66916020717444   -0.86822737078335
H          -0.30463796549295    0.77616214888976   -1.92769977226715
H          -0.88277439072223   -0.71885071919246   -1.35409073702949
N           2.48804341761307   -0.72568910230352   -1.75576858343899
H           2.02561357416568   -1.52765901163365   -2.16644875908241
H           2.51180755737282   -0.86843392667872   -0.75104967433981
H           3.44138319960873   -0.70478275800273   -2.09359836579931
