    26
        -50.46975309  Gyration_radius:  2.44544075749 Dipole_moment: 3.784
 S           1.08388617588434    1.42842098042381    0.63074518782818
O           1.53646754148387    0.69684788601231   -0.55619598058859
O           0.42224776697437    2.66803658849360    0.30612782505291
O           0.31530738667116    0.56490635596492    1.50544445712135
O           2.40928263205806    1.82939217950198    1.40567071653899
H           2.25349186701007    2.75740093338504    1.54093366484311
O           2.75335041421810   -1.61384338083060   -0.04603094737773
H           2.38423675609495   -0.74067062151915   -0.29129926795902
H           3.51096230539132   -1.43420199718693    0.51290679474338
O           0.41593786811791   -2.09908856700590    1.24158851486307
H           0.37717535923423   -1.16518932734583    1.52453225403726
H           1.27081999291919   -2.17305784864266    0.77515836248241
O          -1.88476507977941    2.03963626528768   -0.88941323569603
H          -1.10574059792594    2.47351337850133   -0.48428548203908
H          -1.23992629189172    0.87581357144687   -1.61043240863490
O          -1.54732852454136   -2.04774980005797   -0.43484440369554
H          -0.79765774528333   -2.13099956011945    0.23318642667470
H          -1.82623487337291   -2.94136419104044   -0.63576661356562
O          -2.35142372972730    0.29622224057024    1.05313368986181
H          -2.30416870385250    1.54621408717330   -0.14632679208648
H          -2.34789547737560   -0.58638038132946    0.66113191797383
H          -1.45360106678131    0.42561133602661    1.40653148647342
N          -0.62382520210810    0.02274419320362   -1.89308282134732
H           0.31406677427362    0.22483133774983   -1.45930320844596
H          -0.54803028724662   -0.07803493691280   -2.89908932898863
H          -1.01663526043904   -0.83901072175938   -1.45102081807129
