    26
        -50.46975354  Gyration_radius:  2.44535009901 Dipole_moment: 3.758
 S           1.25250441247324   -1.26119100999023    0.66915991319370
O           1.73583637562385   -0.24305485908826   -0.26790219143595
O           1.52489389648487   -0.93011898972893    2.04607258388443
O          -0.13654606835088   -1.58383833432073    0.40795860867774
O           2.10813138511550   -2.55963942723322    0.35313207874193
H           2.38665247166741   -2.79804969042971    1.23022370065997
O           0.01012982788450    1.18303241964751    2.66703673946205
H           0.63340811426615    0.42783257322486    2.64480215259429
H           0.21887819351581    1.78495371811049    1.29444964037996
O           1.26089995932902   -0.77515422017961   -2.83155145759198
H           1.67150890354513   -1.61522996395890   -3.04198256925702
H           1.53162061598244   -0.56319747505018   -1.91478969952622
O          -1.28782036527957   -0.89636500324562   -1.91104799703981
H          -0.96953417370511   -1.30601941869579   -1.08359434528000
H          -0.48474488131793   -0.80936372522591   -2.45995126835651
O          -1.99473363474870    1.38700814710671   -0.93412011959422
H          -1.76875843693307    0.50175689824590   -1.35882185614987
H          -2.56653529166340    1.84174428849452   -1.55293964895490
O          -2.06106730936506   -0.05631510706613    1.56968009469517
H          -1.48062418580679   -0.75759721233854    1.22463509327924
H          -0.87482670178280    0.77393115473111    2.52194090200789
H          -2.33257011274290    0.45525276179245    0.79687663527601
N           0.37171683761913    1.94814686163436    0.22800015310356
H          -0.54808884341959    1.86700720906691   -0.26155977723214
H           0.98321810254668    1.14546036182964   -0.07265865391187
H           0.81645093907118    2.83900805267013    0.03695131836532
