    26
        -50.46670421  Gyration_radius:  2.38936293943 Dipole_moment: 7.720
 S           0.96055599083012   -0.63457065652376   -1.09272811932181
O          -0.29993201977682   -0.08923174550291   -1.60790594928481
O           1.35456447117187    0.07407505278099    0.12918817552283
O           0.94655512494403   -2.05746884607968   -0.95079312454032
O           2.04883945914394   -0.26350454704730   -2.17106684300373
H           1.98648294324086    0.69280874324464   -2.25506230585481
O          -0.46811755168089    1.09431320692127    1.84091381617176
H           0.34380001416535    0.71528377992788    1.45781306617791
H          -0.92765014852039    1.76415288239760    0.61956268446796
O          -1.96023442052588   -1.97910409964209   -0.64049224077926
H          -1.42099117354475   -2.77370204475908   -0.67356874155739
H          -1.44098588840825   -1.30627649900831   -1.11084279528592
O           1.62713485374763    2.34570927734583   -1.07665954772109
H           2.43830343978621    2.79663127856243   -0.83443749545486
H           1.57690625003602    1.54054212539163   -0.50812496656775
O           0.78828061852154   -2.31656458468570    1.73265910169718
H           0.86297857453762   -2.37014103445928    0.76306863875936
H           1.45175776132127   -1.67749307375579    2.00031359771915
O          -1.68950662026210   -1.18958746022007    1.95339506138220
H          -2.00411408517485   -1.44653049987549    1.06508723304417
H          -0.88397765582791   -1.72559314794884    2.08463896141827
H          -1.04779457680893    0.29064036263760    1.99591956012977
N          -1.06537973474947    2.09188438772923   -0.42995368121864
H          -0.87612464264521    1.20931442698445   -0.99256047402356
H          -0.31554649139500    2.74194103123719   -0.67998113587921
H          -1.98580450213908    2.47247169435546   -0.61838245600022
