    26
        -50.46327890  Gyration_radius:  2.36770328762 Dipole_moment: 4.810
 S          -0.80362500148577    1.09128752350339   -0.53972442306618
O          -0.29835271545747    0.72234722642150    0.79052385388306
O          -0.14666742411239    0.27281394095016   -1.56304148895785
O          -2.25105657751120    0.94281047655572   -0.60054255059849
O          -0.44665342533123    2.56063152542916   -0.78474785651628
H           0.53370393327732    2.60888438362991   -0.47173527539814
O           1.01148394508720   -1.58737173548326    0.81438474090191
H           1.80614738464130   -1.43825019102015    0.28653366950458
H           0.60209194894892   -0.69707970544799    0.87014005252453
O          -0.82514273142803   -2.19995336949466   -0.99783982496781
H          -0.13208599647664   -2.24849970704396   -0.29463107604053
H          -0.61478377133223   -1.35408390071479   -1.45521941179077
O           2.41175855146721   -0.15604566345260   -1.19297154099382
H           2.80731948523905   -0.37585143465055   -2.03787011433821
H           1.45438202314525    0.00239449299569   -1.37778702803328
O          -1.59959596554836   -0.93714568161260    2.36858662263506
H          -1.15546850978949   -0.16620021174465    1.94643569478913
H          -0.90287119028623   -1.58489921299958    2.51303202823905
O          -2.84262932265124   -1.34517401538182    0.18475266037110
H          -2.06188273189826   -1.84792557526450   -0.35086388477566
H          -2.49968241857551   -1.27666853151343    1.14948759488851
H          -2.75259161419893   -0.36635789361518   -0.17308633448974
N           1.95535050979842    2.41652334504554    0.10775625259601
H           1.77040755303358    2.18518374810542    1.07541217836537
H           2.61475953952011    3.18245652068511    0.06828202773700
H           2.36568452192543    1.59617365611804   -0.33526658646980
