    26
        -50.45449809  Gyration_radius:  2.53007410947 Dipole_moment: 2.889
 S           0.34835208899448    0.18033779421786   -0.98729623117473
O           0.70902582522396   -0.70639328390244    0.15795549105997
O          -1.09018673236296    0.18627896418048   -1.17449198213450
O           0.89489681640047    1.50703076358277   -0.75214709967062
O           1.02549506521616   -0.41206339556656   -2.22460206035689
H           0.38003246147845   -1.19780844933138   -2.49112789733121
O           0.04599308789863   -3.29906973414697   -0.09432650300906
H           0.83121608931186   -3.77842288582223    0.17463846709445
H           0.24966190611463   -2.35314587057179    0.04619422468764
O           2.12629887302664    2.30444149714150    1.37556872639469
H           1.69579884812799    2.10516783776135    0.50238278035454
H           3.06972481279096    2.20340266966274    1.23782817298263
O          -1.56004576154791    1.25047541492798    2.45342466304954
H          -1.62392832781298    1.79317076777888    1.61381855534151
H          -2.21077629553891    0.55136121765563    2.36329689809603
O          -1.60896040346616    2.40128298121587    0.12387188424290
H          -1.56875891966958    1.59028290948701   -0.43156261376436
H          -0.78730114604994    2.85922496235074   -0.07785595911469
O           0.80561162458640    0.37418733917520    2.36776891689621
H          -0.16281989806184    0.73224345608206    2.49863214806322
H           0.77323921090482   -0.15730066969796    1.43286414409690
H           1.38422276799031    1.18834721718662    2.14232870292253
N          -0.71921616278705   -2.19572929594923   -2.60682660609071
H          -0.96955567396995   -2.65846176675637   -3.46980474157954
H          -1.47062522013993   -1.58295337573331   -2.30820296762885
H          -0.56739492663954   -2.88588702492006   -1.87232911342121
