    26
        -50.45449827  Gyration_radius:  2.52970775485 Dipole_moment: 2.885
 S           0.64749536035058    0.64464161745833    0.54295404564815
O           1.10996163384046    0.82916811303685   -0.81965239877304
O          -0.80439890948621    0.29835733797199    0.54510185378459
O           1.38343067115865   -0.38654908241121    1.25650158445539
O           0.78129160958716    1.95915070577816    1.31376461142894
H           0.49920231859608    2.67849760517437    0.60081976149817
O           0.41144730259026   -2.58431578695913    2.20727294226798
H           0.88934864363830   -1.76491346512588    1.91105261531370
H           0.19045375543656   -2.44620629624868    3.12994524790525
O           2.14177849893323   -1.55222954551079   -1.17383812091284
H           2.41200260688541   -1.70832267521391   -0.26380792052384
H           1.84933404883914   -0.61293960220599   -1.17467262004271
O          -0.15087523204651   -2.64038783225346   -1.73388504331918
H          -0.46929941796014   -2.10827837558314   -2.46591599296565
H           0.78389787738286   -2.32775486574030   -1.55515664819711
O          -2.46471073166368    2.14027843385061   -0.49257517820089
H          -1.87898789090898    1.43196988141137   -0.15912297146386
H          -3.18071151174923    2.20750736844183    0.14110927980793
O          -1.33704559261832   -2.10229942648185    0.42823305791569
H          -0.72101478562646   -2.45660598772945    1.16545371205425
H          -1.17049220104346   -1.04038596246634    0.47328708869456
H          -0.90995214399370   -2.39629849321761   -0.47438523832870
N           0.07418842708468    3.42664365943673   -0.61426559531347
H           0.53998412021429    2.83157829678881   -1.29124182322093
H           0.30401676419748    4.39577517066314   -0.78625108124220
H          -0.93034522162010    3.28391921714331   -0.71072519830364
