    26
        -50.45310614  Gyration_radius:  2.52584994647 Dipole_moment: 1.457
 S          -1.18616865544035   -0.50975762955881   -0.92917973873657
O          -1.54039508368968    0.89891992686537   -0.86964601922521
O           0.24509791814530   -0.69870821983533   -1.14104377695109
O          -1.64225848480639   -1.24603559224681    0.24416053422028
O          -1.92662157631705   -1.14536841976867   -2.14740488586766
H          -1.73343395400968   -0.50779594544795   -2.86249123615230
O          -0.13537247339650    1.89375786369208    1.20280963779829
H           0.74024712268508    1.88132457843456    0.74827309431653
H          -0.76310866991309    1.59865795721051    0.51794307926449
O          -1.37694679806196    1.07897224789147   -3.46516510140220
H          -2.10822694888771    1.58033784557424   -3.83327384744527
H          -1.35414680113915    1.28521402133632   -2.50725374508399
O          -0.01589471256340    0.31103340228082    3.20912897172999
H          -0.81033227293282    0.48730243341522    3.71664401546589
H          -0.03013143373263    0.96769756820093    2.43392364777797
O           1.81622459251904   -2.03785688092753    0.41608011954721
H           1.96297141132916   -2.88948925072719    0.00025097334103
H           1.28542820629668   -1.50171876849339   -0.23252609087853
O          -0.10686310948811   -1.91174713515027    2.07284499867876
H          -0.81431054839646   -1.69765724590411    1.32905187654862
H           0.76120892662008   -2.01732255777273    1.54005213685167
H          -0.03215068013202   -1.00499397219213    2.61575175800394
N           2.04540181419779    1.42765015982582   -0.32246029033640
H           2.83788396091972    0.94789463594186    0.08563880876992
H           2.39681092729223    2.07924654635376   -1.01220251722130
H           1.48508734289661    0.73044244099485   -0.80990640300511
