    26
        -50.46489328  Gyration_radius:  2.55414745208 Dipole_moment: 4.641
 S           0.69581818406243   -0.37960074763825    0.23441937219070
O           1.42987596164927   -0.66161668887074    1.54545811133867
O           1.45718090509837   -0.96281617352125   -0.85179967626530
O          -0.65384917982931   -0.93978441634605    0.30786826760717
O           0.62370373014459    1.08865464751524    0.05558111842019
O          -2.18125574579448    0.00014218708630    2.24093702796327
H          -2.69127441587296   -0.74521195671919    2.56237671557494
H          -1.68031039703636   -0.32756204496526    1.46172514883785
O           0.41369177082230   -2.57326116073388   -2.66081630750834
H           0.48216431991087   -3.48352330047634   -2.37018312719028
H           0.88649179873250   -2.03925546134252   -1.98239824091762
O           0.95297062218856    2.78768159734179    2.09242176853037
H           0.78543740581648    2.25576067642872    1.28794290939012
H           1.90186467140813    2.91844434726035    2.13383216904168
O          -1.60246730398760   -0.90436740576235   -2.14546374525929
H          -1.09355439562969   -1.66187605265761   -2.50471022210251
H          -1.44308262640571   -0.95525024417358   -1.17444642970596
H          -0.65228402529326    0.20464652431134   -2.44618090222736
O           0.17798671144462    0.55140086130775    3.36464378120979
H           0.93006516294113   -0.20526216126993    2.33094383103483
H           0.39111317922979    1.47661553185118    3.11932969822298
H          -0.76300289842539    0.42232633905687    3.11077729828265
N           0.20178406648250    0.89909082085474   -2.46627761712183
H           1.01520961458066    0.37972118512010   -2.79301990590188
H           0.38481605658725    1.12633333274906   -1.42695949538319
H           0.03090683717525    1.72856975360058   -3.02600151806319
