    26
        -50.46195483  Gyration_radius:  2.47322761317 Dipole_moment: 4.185
 S          -0.94463508929305    0.16252526985853    0.03681075462286
O          -1.44184242991866    0.68925695862978   -1.21681717865037
O           0.16452276779630   -0.78850559352625   -0.18743475694932
O          -0.52849756005890    1.18518176343467    0.98123109426363
O          -2.07204940586513   -0.64394129657779    0.73076908320634
H          -2.56815245927367   -1.06418924071981   -0.03521667736184
O          -0.64973785772622   -2.68899123766932   -1.86767054992144
H          -0.25771883232192   -1.97725649036383   -1.32113834600681
H          -0.34217480365289   -3.51645851281742   -1.49443329432877
O          -3.01742314315993   -1.47525435056422   -1.49554261047104
H          -2.73657632768107   -0.60867063664862   -1.82583075271108
H          -2.30854569889467   -2.08985905901825   -1.77632395773697
O           0.79531389249754    1.68505143104025   -2.22770703132247
H          -0.03978371512827    1.27886343619765   -1.91305391394761
H           0.54910249295692    2.28862554238396   -2.93095944612308
O           2.30870071935810   -0.09591919898853    0.90910581715368
H           1.51395398458118   -0.48796081939552    0.38627160800091
H           1.89947057747629   -0.05058257753564    1.89695809793058
O           1.78075624380340    2.23489361205529    0.17704331547908
H           2.28350139920699    0.90800510960695    0.58731688804076
H           1.62713862245108    2.15986639462833   -0.79028588413516
H           0.88538760571130    2.12097882995566    0.55803658884498
N           0.98327324788707    0.13492503494828    3.05136986680729
H           1.25979187481144    0.79183657929944    3.76942977101625
H           0.63387011047414   -0.70344644174711    3.49645086119842
H           0.22235379395973    0.55102549348027    2.50162064309751
