    26
        -50.46195495  Gyration_radius:  2.47359748961 Dipole_moment: 4.189
 S          -0.72528381248247   -0.56803963183666    0.26176481092040
O           0.39630873086062   -0.30122482100888   -0.66313693826187
O          -0.32803740280474   -1.47863576201687    1.31509018526222
O          -1.26939069847910    0.68933754640941    0.74578675656637
O          -1.83936746058384   -1.23066819013657   -0.58809002152225
H          -1.59200546443457   -2.20454433769054   -0.58523005044920
O           1.75072998337701   -0.17513833106114    2.31403519394571
H           1.92949970707913   -0.54264067549264    3.18148057055342
H           1.02450141084869   -0.71380426914007    1.93474345836042
O           1.04028761633133    2.11800991376705   -0.78033002712408
H           0.07078526973330    2.45952709338827   -1.08019306731465
H           0.90682539200650    1.09848452134413   -0.81287694375727
O          -0.84309937288643   -3.56843153179760   -0.30051034780604
H          -0.58545167114806   -3.24392835585869    0.57543422273248
H          -0.03256327870541   -3.48700605153791   -0.84390648492127
O           1.32039612653074   -2.62433236784930   -1.58328014659736
H           1.09113035945344   -1.74525827665685   -1.21790828429241
H           1.45188841493552   -2.49969740776232   -2.52439920277761
O           0.71151965081220    2.19013382634535    1.69626161974156
H          -0.15953359157065    1.76151860074326    1.56405170329683
H           1.27324789063191    1.46194948764680    2.04150054350760
H           1.04679811627027    2.28486372192752    0.26093365080811
N          -1.39672414685322    2.60700390237354   -1.24842549897840
H          -1.64383843619273    1.90130747879064   -0.54460073239334
H          -1.78609906601537    2.32146417671421   -2.13717704104680
H          -1.81252427665723    3.48974974043995   -0.98101791840988
