    26
        -50.46858000  Gyration_radius:  2.40026344517 Dipole_moment: 7.181
 S           0.49873931707953    1.62750448286983   -0.16464200894542
O          -0.76755969561802    1.28556681558265    0.50866052184582
O           1.47065935154501    0.54206345459824    0.05269337153289
O           0.32735087679774    1.93408739620410   -1.55502369484146
O           1.05911621623996    2.88674532281439    0.55423986857582
H           0.99531004255468    2.65844222068130    1.50422929551377
O           0.17503959947849   -0.56690022093463    2.00774568949947
H          -0.40645213127097    0.10781871669304    1.57168596391932
H           1.00703897686139   -0.39416854662982    1.52700483914216
O           1.37091326637910   -1.50871802294085   -1.50130701810275
H           2.26334678427344   -1.72357279133890   -1.77572514060124
H           1.44664387346671   -0.67260564789544   -0.96013064049620
O          -2.20977218912627   -0.45423781801662   -0.88771363601287
H          -1.43258036986815   -1.56357372841751   -0.32414258577741
H          -1.85814032567590    0.30859599874969   -0.37930807735315
O           0.53752276093784    2.04591886336817    3.03254228617517
H           0.52575939388503    1.07585935466642    3.01458617148771
H          -0.38112790396451    2.32574917361705    3.06386388772058
O          -0.62813029391674   -0.11884715129751   -2.95326402078363
H          -0.31241235074556    0.74763272039302   -2.62425703879422
H           0.09336544762345   -0.73109935831001   -2.75598716488271
H          -1.81315708950396   -0.34184656192139   -1.79092899148613
N          -0.67847131333611   -2.24989656752510    0.11168170543026
H           0.12917123483848   -2.23811504731872   -0.53926372830414
H          -1.04012618401652   -3.18577159992440    0.25283967538665
H          -0.37204728490366   -1.79663145778885    1.00992047014547
