    26
        -50.46857997  Gyration_radius:  2.40022141739 Dipole_moment: 7.184
 S          -1.43043564724966   -0.28091435274656   -0.89555139163574
O          -0.36038857981264    0.59169878509839   -1.40889494927984
O          -0.83292469772228   -1.34118850944325   -0.06315967146219
O          -2.45307926333802    0.45628949791017   -0.21198768486797
O          -2.06752044811525   -0.98662555646910   -2.12548308859089
H          -1.36105172698882   -1.58773556738581   -2.43880582200429
O          -0.03579981847566   -2.65941087266478   -2.56775550427333
H           0.76659659749358   -2.24444963689658   -2.21371277801053
H          -0.29454584548458   -3.33099542548365   -1.93128642339320
O           0.50538866767967    2.47753698183495    0.11558893443934
H           0.57576531886127    3.27865852319740   -0.40504143257621
H           0.10375186860260    1.79310540066305   -0.49106312096037
O           1.57705430109789   -1.05379982704060   -0.88587902596386
H           0.74751771402440   -1.37198016728581   -0.44505333132382
H           1.20947920080436   -0.30825971712243   -1.39764603043153
O          -0.20144747509196   -0.47825607652440    2.36870273943963
H           1.06851867186172    0.05048773014096    1.86009978736165
H          -0.54711382917441   -0.94870053402698    1.57926510321620
O          -1.53839704079794    1.73594191668291    1.93446600457643
H          -2.07044941720721    1.32573829609552    1.22210565856817
H          -0.77040778606198    0.33311144144262    2.43044135118320
H          -0.88629405053284    2.27726739116452    1.46966624650410
N           1.91418046822879    0.47647389663097    1.28250829891222
H           1.58488018588539    1.39389147819529    0.92760362470347
H           2.03820329211200   -0.16062741043573    0.45503708861879
H           2.75851932938673    0.56274230446007    1.83583542725040
