    26
        -50.46327890  Gyration_radius:  2.36769970464 Dipole_moment: 4.810
 S          -0.53244142502430    1.13358996352499    0.74801688710422
O           0.59425095794726    0.20461239520416    0.91695213207442
O          -1.08996499642682    0.99513538888874   -0.60056223421934
O          -1.55083897030267    0.89823077454900    1.76205595965760
O           0.00722846302008    2.55793624009532    0.91061152736213
H           0.86860426521244    2.53766609611840    0.34579257256067
O           0.31277086080429   -2.13307291002242    2.09740207685884
H           0.55668010007269   -1.21612886759887    1.83370679312578
H           0.64744863053293   -2.69801323563920    1.39405006993538
O           0.69393138217080   -1.67835285624219   -0.95269309849019
H           0.88550186344489   -1.21311346728734   -1.77682942772987
H           0.76178691976436   -0.97563184097950   -0.27085254982282
O           0.66612024469503    0.68391271838842   -2.52038664273054
H           0.26098750202885    0.94953048299203   -3.34739979583716
H          -0.02385549488124    0.82152913324798   -1.82697204169484
O          -1.94195878438737   -1.48485875664429   -0.73513597147263
H          -1.84777913193411   -0.50792977941459   -0.81050791198660
H          -1.02544159127248   -1.80906369780653   -0.91421496691397
O          -2.13377296605566   -1.52281571781380    1.74704161662632
H          -2.00406501687622   -0.49169455707067    1.86623213150626
H          -2.16999481719145   -1.61809680380526    0.67989571397774
H          -1.22168931812012   -1.90847364897295    2.01609988094410
N           2.11903675416988    2.21953013682921   -0.50809044303191
H           2.76490478961826    2.96322510646485   -0.73788129925014
H           1.80579448360123    1.76888236307512   -1.36623503764095
H           2.59675528538654    1.52346534991664    0.04990406909080
