    26
        -50.46327890  Gyration_radius:  2.36770024322 Dipole_moment: 4.810
 S          -0.61928482821743    1.29254174980709    0.27177747190119
O           0.45035855851503    0.49436744856856    0.88801899481323
O          -0.96590411762507    0.72932044261817   -1.03639080591646
O          -1.78543244323511    1.35074987203737    1.14213174005231
O          -0.08404391708916    2.71307359299392    0.06672887057088
H           0.85322463622489    2.54540089741764   -0.32673726599696
O           0.79989909465905   -1.86884833383146   -0.27133083125642
H           1.12439772633473   -1.67442566505731   -1.15972784271160
H           0.77568891547716   -0.98868965629511    0.16233062058672
O          -1.83402382976709   -1.69572950355782   -0.52660273180445
H          -0.90719684357107   -2.03209638125992   -0.45567705889329
H          -1.71090072431734   -0.78709461961939   -0.88460141211888
O           1.05763631994119   -0.10569597131084   -2.47668732636706
H           0.78924833545080   -0.11960922497597   -3.39669296115970
H           0.27220691739657    0.21822673461163   -1.97270040830945
O          -0.05309054872720   -1.37373538638150    2.67524709654701
H           0.24571112663981   -0.57568585372417    2.18163833942492
H           0.37473346015621   -2.11759124458861    2.23991378682068
O          -2.40494394822459   -0.97348874317246    1.78680845445495
H          -2.27552941814076    0.04762165622486    1.60017289893549
H          -2.27887315195352   -1.39363158766450    0.80866256103373
H          -1.55239036142397   -1.23049500785326    2.29683076504237
N           2.21356382564018    2.01698569336484   -0.84069503266539
H           2.02715508947560    1.31502015581505   -1.55491740443817
H           2.58680451039386    1.54091335028485   -0.02944503613560
H           2.90098559598660    2.67259558555000   -1.18805547241080
