    26
        -50.46662475  Gyration_radius:  2.47251561417 Dipole_moment: 5.606
 S           0.39898306012331   -0.26885782906093    2.13786894104440
O           0.82922672194619   -1.62619484600251    2.34045236465470
O           1.20765998003510    0.45489653783469    1.14416767019043
O          -1.01088155607379   -0.08682179257653    1.87829970319298
O           0.70683071941393    0.47674261055146    3.51504088349520
H           0.98047608130376   -0.25367488910375    4.05994049966730
O          -2.47960749236278    1.04029017651560    0.07448817930997
H          -3.34598643828984    1.21063653740141    0.44583188848977
H          -1.97266472182810    0.55326678858570    0.77425630577898
O          -0.05087404838495   -2.23450159327120   -0.12964695268934
H           0.79481289617490   -2.05627049669858   -0.56431596624600
H           0.12297790261945   -2.14369240016336    0.81974887955937
O           2.27211380814070   -0.86056676170568   -0.89234637534127
H           1.94696600370278   -0.37961725658972   -0.09853878253169
H           3.17258425016590   -1.12505229992137   -0.70146724280471
O           0.52571490592869    0.44208289362093   -2.61995609034330
H           1.23977100783686   -0.09696542323102   -2.24365051210083
H           0.23123526670316    1.42981528723004   -1.53064293569573
O          -1.62434665864795   -0.85392476419796   -1.84481064343504
H          -0.29791801398832   -0.10727307971830   -2.52118061313498
H          -1.19394995303143   -1.48313931164525   -1.23338350119649
H          -2.10972700801511   -0.24011363163117   -1.27654885148806
N          -0.02554425767223    1.96459089896963   -0.61150228386348
H           0.47328837496516    1.44720090500433    0.16590730313866
H          -1.04157645250708    1.85808080831942   -0.44654420478775
H           0.25043563173900    2.93906291148543   -0.64146767286861
