    26
        -50.46814489  Gyration_radius:  2.48499222327 Dipole_moment: 4.347
 S          -1.36385708519032   -0.18891646599959   -0.23182624826152
O          -2.22175871602421    0.21191140153148   -1.31735268446049
O          -0.35594813854156   -1.16629046156039   -0.66377169784275
O          -0.67077581587385    0.97261679535435    0.37195339727193
O          -2.22795473091109   -0.82542998261081    0.86597957070067
O           1.21722167813558   -2.14215584532013    1.18055033406336
H           1.14726434855775   -3.09813461288565    1.16236849544342
H           0.59014949429278   -1.80958798174322    0.49277469018271
O           2.19629719248288   -0.75538873949031   -1.31527512265462
H           2.59099119714843   -1.04807781378449   -0.48771691325385
H           1.26155629908170   -1.04568298175457   -1.25403938861243
O          -0.28330938222121    1.51624134398772    2.94294969142306
H          -0.39439061422437    1.41190202528924    1.97495221856637
H          -1.05102566057792    2.00223041630772    3.24864021339893
O          -0.75882349836893    0.99547862372551   -3.31134230134830
H           0.41511322095559    1.48697717773844   -2.32460684416646
H          -0.60574446786705    0.19395739377511   -3.81587965113683
H          -1.42608693569726    0.74716931471270   -2.61943357370883
O          -0.66368571647914   -1.14775862852775    2.85541498753812
H           0.14492643741968   -1.51303565159924    2.44510480027811
H          -0.44811515478422   -0.22308840522574    3.09783401502753
H          -1.64062668625853   -0.98689408834057    1.68058548878747
N           1.02081021080158    1.61158004917938   -1.46498588413113
H           0.35258239768133    1.45991293131256   -0.64093239777020
H           1.46505003121441    2.52249631170316   -1.43632304571065
H           1.71014010524987    0.81796788422605   -1.43562214962158
