    26
        -50.45701993  Gyration_radius:  2.46202732884 Dipole_moment: 2.296
 S           1.56154553183606    1.05227684340087    0.50637075100014
O           2.02044524671664    1.19388773856419   -0.85626423872277
O           0.24070335693060    1.63932719348190    0.71071276529854
O           1.62000244207453   -0.30918317289607    1.01164868799307
O           2.56640409504514    1.89498456773684    1.39350111533818
H           2.88502097624721    2.50944942325043    0.74201085799165
O           0.43813314521984   -2.17092286951973   -0.36165411726395
H           0.92587579788214   -1.49282779513272    0.17112645850058
H           0.85994156397612   -3.01163914273322   -0.17755566184796
O           0.91904072279627   -0.54036705178370   -2.54490744640311
H           0.74409149807368   -1.28418592236650   -1.94715648286651
H           1.42928755575151    0.10659211459283   -2.01430673954475
O          -1.31287174395941    0.73721193538726   -2.81824527589690
H          -0.47088822753143    0.19045544364143   -2.80677568581232
H          -1.07801411692003    1.57642106209311   -3.21742770868683
O          -1.94613745090820   -1.34163164193720    0.64295855251824
H          -1.57221935434276   -1.07121322558892    1.53412761862321
H          -1.20759679386994   -1.79239967513643    0.18898698992160
O          -1.91900588835474    0.92317278314139   -0.36396098255879
H          -2.02940345880645   -0.08118529740240    0.03367674014779
H          -1.06085890450656    1.27393268034178    0.07135936189518
H          -1.73627671706883    0.85101600618428   -1.37709146479087
N          -0.65627791597082   -0.35944556497176    2.72534995576529
H          -0.52775358277110   -0.76962227041950    3.64165407079575
H          -0.94467698363196    0.60322033157528    2.85106733637940
H           0.25148923610909   -0.32732449349900    2.26079452222602
