    26
        -50.45701988  Gyration_radius:  2.46199858869 Dipole_moment: 2.299
 S           1.55869742651467   -1.13764226584156    0.27860365150067
O           1.43621439737980   -1.77528709408110   -1.01207359776329
O           1.76946649019695    0.30261106862228    0.16787600463282
O           0.47391037622131   -1.44538338372133    1.19555911607691
O           2.87166077078392   -1.73152016006591    0.93463113590457
H           3.34325188692233   -1.99260823854052    0.15177125184562
O          -1.95983848868208   -1.02132377313985    0.39172371586939
H          -2.55377714094097   -1.60107049350868    0.87103753764970
H          -1.04764581486621   -1.22482396148641    0.72038425902569
O          -0.94682177736808   -1.45142593458776   -2.14725281882240
H          -1.50850409440846   -1.36643414351224   -1.36083839772697
H          -0.05712768330567   -1.68430933382500   -1.80865211967483
O          -0.50368863094282    0.94587082887574   -3.01029118625834
H          -0.75614840172262    0.00945750165587   -2.75052129890630
H           0.21937715081968    0.86159800788558   -3.63389026045265
O          -1.61015353040878    1.63132479594243    0.86423415546657
H          -1.93602530240975    0.73656582281929    0.64529920094108
H          -1.00236607005511    1.49693866768997    1.65139454236154
O           0.18338122995544    1.99524083705749   -0.80749718788081
H           0.87645887005650    1.34056104400945   -0.43327393963155
H          -0.11564796250825    1.62742908614461   -1.72419374157070
H          -0.65450344196286    1.91904339442275   -0.12095305992637
N           0.25120378651054    1.00800234570206    2.62829254017566
H           0.17249244317459    0.94206148257365    3.63518941944646
H           1.08305292402859    1.54449426702980    2.41393679989720
H           0.41308058696468    0.07062962189788    2.25950428782763
