    26
        -50.45520878  Gyration_radius:  2.55043559105 Dipole_moment: 5.896
 S           0.92959868596708    0.44024366299144    1.26372486579311
O           0.84274489310668   -0.86593642019184    0.60249207190435
O           0.25199286499645    1.45786380327030    0.28896251786190
O           0.27099127906761    0.46510118284807    2.53900183317416
O           2.33084773392257    0.89386715554207    1.30234449714075
H           2.56015816620914    1.24392183418295   -0.00277629532984
O           2.21960190087473   -1.17279004481714   -1.55291228794045
H           2.92773379991902   -1.78724121001648   -1.35256698210042
H           1.67575942658506   -1.11193559903608   -0.71583614730855
O          -0.80619087424110   -2.16142602868332   -1.05910967655095
H          -0.33624359691765   -1.76585401516306   -0.30004690612789
H          -0.16534855891594   -2.17777341641026   -1.77411389669617
O          -2.87820455198742   -0.52311240086617   -1.48033590006057
H          -3.66171489808439   -1.00052491049660   -1.20221506844269
H          -2.12951947544488   -1.15248590767901   -1.37118314516638
O          -2.23018779623515   -0.34233894836684    2.56768125060936
H          -1.26346427829846   -0.16697977284753    2.61666222467251
H          -2.59214500737683   -0.02413168389441    3.39662169369438
O          -2.24161990345071    1.24827919204649    0.42043091811759
H          -2.38178678655803    0.68073755699130    1.21148115363380
H          -0.78412526170222    1.39895160148776    0.36020798079223
H          -2.50414826183059    0.69375168488162   -0.35090628883421
N           2.53145000078267    1.42188914888903   -1.12801937531673
H           3.29213821251216    1.99399068674538   -1.47755526159389
H           1.62127716597396    1.86151300052721   -1.26756634185024
H           2.52040515112039    0.45241986806369   -1.53446743408800
