    26
        -50.45153917  Gyration_radius:  2.4592850043 Dipole_moment: 1.685
 S          -0.51230998981715    0.27090377955083   -0.72038968156077
O          -0.12718772933576    1.62039402138256   -1.06597640423588
O           0.38429278937810   -0.34357397735642    0.24769067372367
O          -1.91032127910425    0.19078613001114   -0.25959031246277
O          -0.48628462564551   -0.62723222281010   -1.99577655259068
H           0.39342266816179   -0.51552213322410   -2.47375925736780
O          -0.84601631888755    2.14360122182059    1.47038191591042
H          -0.44582672059160    2.04786416391368    0.58789858715244
H          -1.78577382644309    2.24444111593944    1.29551302074909
O          -0.32395143257824   -2.82130941446798    0.25075022118987
H          -0.56203714335333   -2.97440621811538   -0.66710531839498
H           0.15307044183255   -1.95248425548377    0.25820340100413
O           1.78699998244102   -0.20241954955657   -3.13208304988036
H           1.63549422970071    0.52141391580995   -3.74383081660735
H           2.26631203131849    0.19406581665348   -2.34838612834541
O          -0.83477056212539    0.02182530931934    3.12508376063984
H          -1.28849837285785    0.41008242149463    3.87611666731475
H          -0.64092653378234    0.76074664086697    2.50323082129826
O          -2.10129113337004   -1.49643227840852    1.50395463939014
H          -1.59064639597225   -0.99851434421498    2.23748520921835
H          -2.11551010099946   -0.74823386062501    0.70055306804013
H          -1.45745523181404   -2.19312207297745    1.11913478082103
N           2.64981379163338    0.99456250514431   -0.94113435203072
H           1.81448160666438    1.57662284510558   -0.93542191971820
H           3.44442175011050    1.56697007447130   -0.68391408778539
H           2.50049811542960    0.30897035574017   -0.20862888545300
