    26
        -50.46100992  Gyration_radius:  2.4199006105 Dipole_moment: 3.547
 S           0.44539090284678    0.83109837474647    0.99359285660186
O          -0.89318760853640    0.99330552229536    0.40801354172998
O           0.68081104471736   -0.55569916978624    1.35963910146602
O           1.46898105586628    1.32461400204519    0.08012636618074
O           0.50585134858292    1.69891003326312    2.27258110659858
H          -0.25411757896049    1.32592642847405    2.80295123763229
O          -0.99981018008691   -2.27753072274208    0.35526148535236
H          -0.70298578154457   -3.12987598497457    0.67878948589997
H          -0.41125799111112   -1.60336934915987    0.77562262145342
O           2.13997874410778   -0.92852329635156   -1.13526150881489
H           1.98340413805474   -0.07880984906345   -0.67052265517663
H           2.34891496326938   -1.54718943737045   -0.43210953318541
O           1.16150932388479    1.94352490279149   -2.46015967840858
H           1.81345798687960    1.36500581984136   -2.86491158976018
H           1.35167353253190    1.92319404992115   -1.49533102325262
O          -0.26682473805123   -1.56209622474530   -2.09069458803891
H          -0.66893270097921   -1.92842586246279   -1.26629721067288
H           0.68202816823925   -1.40922922188807   -1.86441753985406
O          -1.08258964712940    0.78198382577489   -2.07338329255862
H          -0.80441517786469   -0.26031172957310   -2.17297973162993
H          -1.10669531293245    0.91983934401229   -1.04298164964953
H          -0.26532591072067    1.31608251694749   -2.37293362266989
N          -1.58657834674457    0.38751730563278    3.10178889956991
H          -1.28379800764982   -0.55823234224980    3.29517370930872
H          -1.87354417212528    0.42774468007134    2.12831697076407
H          -2.38193807454505    0.60054638455086    3.69012625112374
