    26
        -50.45671242  Gyration_radius:  2.49564473323 Dipole_moment: 3.463
 S           1.23328179675962    0.10867788340133   -0.65752440067387
O           0.18939891683104   -0.78188908111612   -1.16724392405310
O           0.78599676415009    1.49520034504389   -0.71925285926455
O           1.62971931372489   -0.27875724875794    0.69201918120425
O           2.48586658787077   -0.05774370281083   -1.55319518655471
H           2.16579978919688    0.28630337250068   -2.42978267737595
O          -0.50393233503037   -1.60472571441266    3.21917587962260
H          -0.64959647548832   -1.94861621711951    2.29512698191519
H           0.16689734869642   -2.16949456379168    3.60732607405798
O          -1.07695162992235    1.84334601256486    1.08994512108836
H          -0.38028357054655    1.92245605014282    0.39463518616198
H          -1.69854384126776    1.18173538316420    0.72283924011646
O          -2.22779837971238   -0.08669258317467   -0.40386968412785
H          -1.33849059703823   -0.32566263854922   -0.76235561474595
H          -2.74783959193637    0.21891356286406   -1.14809488140832
O          -0.85508280258949   -2.38949958891953    0.74206663691305
H          -0.26388026202948   -1.94762154930540    0.10289765884955
H          -1.73781250778997   -2.08013163976356    0.51152070523312
O           0.46210528478601    0.67050882324244    2.66659178442735
H           1.07428890957560    0.33384021128833    1.89276620098763
H          -0.26334095592451    1.22864190013298    2.13361247805251
H           0.01685349965111   -0.20119583596407    2.99777471289371
N           1.10255859483277    1.02160058088357   -3.48611551265859
H           0.73904623240047    1.56896707329510   -2.71045015060446
H           0.39349852114329    0.35625937016996   -3.76444515812168
H           1.29824138964054    1.63557977502117   -4.26596778195608
