    26
        -50.45701984  Gyration_radius:  2.46260432357 Dipole_moment: 2.283
 S           1.03363369338206    0.63195731519555   -1.53031140585404
O           1.84171605869563   -0.11890201576824   -0.58352958398903
O           0.32259188703937   -0.19349128752415   -2.47918443097363
O           0.15591287232043    1.57663044918991   -0.84686864288936
O           2.04587896235809    1.49956984483691   -2.38468905691561
H           1.62007956971880    1.45798371597293   -3.23348751847502
O           0.67629298764796   -1.98095451477263    0.80205928005128
H           1.32812025729555   -2.63552270747902    1.05755604172358
H           1.16042878604533   -1.29981424227768    0.26960091780452
O          -1.06409734667830   -2.15704359900927   -1.34170755131876
H          -0.52482746340721   -2.32110524899102   -0.55209702463564
H          -0.55669258176729   -1.51004883845296   -1.87501564821425
O          -3.06410170960892   -0.70268268198319   -0.58497856290075
H          -2.35441825477319   -1.35321682541856   -0.87007849351949
H          -3.45726460248831   -0.36882545581289   -1.39290197919173
O          -0.36924459718813   -0.06769961054122    2.42271454367342
H          -0.08760551719739   -0.89048508103610    1.97721094758097
H           0.41918246490950    0.54844220317130    2.34527401992469
O          -1.75791941182236    1.04872277749238    0.70003000225943
H          -1.01175452298535    1.31402307271009    0.05118985708441
H          -2.34211186815200    0.34887476415929    0.21628811138136
H          -1.23902172976256    0.55350596201575    1.51579950614121
N           1.62945956294648    1.51501377554673    1.74134522926485
H           1.24393795807731    2.40152539779675    1.43943037855356
H           1.86441513257929    1.00125622880748    0.89179835228794
H           2.48740942280679    1.70228660217074    2.24455269114708
