    26
        -50.45701535  Gyration_radius:  2.46343105464 Dipole_moment: 2.260
 S          -0.66442170300496    0.91448356651909    1.59421008321822
O          -1.39072319076856   -0.23283742588859    2.08843222050122
O           0.78034290308055    0.74684478517017    1.61042675740239
O          -1.13053128379800    1.35256659757911    0.28358198461536
O          -0.98779266931908    2.09193454219132    2.60301564489498
H          -1.73678902465092    1.71672104554384    3.05210054585247
O          -0.66828270097898   -2.50331281611278    0.90628492813639
H           0.26256946789526   -2.31211520664091    0.71085648563293
H          -0.98458904723441   -1.74463583233387    1.43996344317812
O           1.77121657743263   -1.31077271468103    0.37667740978562
H           2.61289113535165   -1.53810489710943    0.77482867028135
H           1.42610952014381   -0.53124471835993    0.88242492311640
O          -1.97241544212975   -2.16249599906801   -1.30104773481782
H          -1.46639253805404   -2.40031400446309   -0.46723801815071
H          -2.89784978435992   -2.14029472818180   -1.05235440099760
O           1.43907727639161   -0.01578591206374   -1.98712945834177
H           1.60913471790879    0.89765132081208   -1.60720786703089
H           1.64940123336722   -0.63179108587613   -1.25819355486021
O          -1.03398443249636    0.11296509813759   -1.90597424230442
H          -1.42647616156068   -0.82448605210135   -1.72690563448065
H          -1.12821190922739    0.64437178324099   -1.03711718830393
H           0.04002286122599    0.01265938846672   -2.04091975186991
N           1.53445541286011    2.27157457545891   -0.67539360681430
H           1.31967276067944    1.86231140604703    0.23420107826777
H           0.72560111045298    2.82216122783448   -0.93674630866314
H           2.31796488076610    2.90194605587464   -0.56077639824442
