    26
        -50.46256831  Gyration_radius:  2.4137077139 Dipole_moment: 3.854
 S           0.43243210531158    1.14018654018879    0.36894107939255
O          -0.42589224202165    0.33600559390199    1.24812567945399
O           1.62728861627746    0.38580851782866    0.01761638812700
O          -0.29859739965909    1.58293811873824   -0.81089410682862
O           0.84509982814038    2.41307389985062    1.14602785176677
H           1.37308465093672    2.03931878438476    1.90435897376218
O           1.26286021835135    0.01701862286578   -2.58910827251822
H           0.91355363104874    0.87687569399137   -2.83703912281631
H           1.52808869675390    0.12254386607730   -1.65069159964421
O           0.09859306110105   -2.03203502760198    0.20615009902611
H           1.04890520706665   -2.01192620972154    0.06531242187091
H          -0.09669333423967   -1.19000855329454    0.67212026814119
O          -0.78831937575184   -1.58556608439980   -2.25069019288814
H          -0.52848894577806   -1.93407595580823   -1.36187983950376
H           0.01069433159028   -1.07566475564859   -2.55474340095037
O          -2.86560686698716   -0.50178629556238    0.76119710099172
H          -2.02920957012712   -0.10338847027522    1.09698097861283
H          -2.77683284730972   -1.44914732168412    0.89273721574927
O          -2.28871415433853    0.26408105404585   -1.60991797430710
H          -1.69471792195585   -0.60451779259306   -1.98119415012105
H          -2.69614159472958   -0.03644279911860   -0.72590192435548
H          -1.55204638545568    0.92041497185285   -1.33134971351570
N           2.13958300399627    0.84910396744458    2.77783354403998
H           2.37049327499691    0.35629595027032    1.92018920087062
H           1.42810486821518    0.31695947407027    3.26183382549224
H           2.96247914460139    0.90393420012669    3.36398569018101
