    26
        -50.46564186  Gyration_radius:  2.42022968989 Dipole_moment: 2.433
 S           0.85347513845073    0.95632688070554    0.19669686453529
O          -0.03538460804218    0.88924051030096   -0.97548773342188
O           0.08985867217951    1.24409747268935    1.39886063720421
O           1.62628062701630   -0.27439681461256    0.31667726614782
O           1.85961905045651    2.10090085945504   -0.06095771289694
H           1.25845846664471    2.90041183794646   -0.08575864053544
O           0.52165952614819   -2.39490856150584    1.37223775259391
H           0.99595255178879   -1.59809580875778    1.02784669366172
H           1.16632963918010   -2.88941375281616    1.88022527338944
O          -0.54227986515775   -2.77224512324338   -1.12143638322963
H          -0.17782272255176   -2.91108297557551   -0.22787674762536
H           0.19659743474697   -2.36716285899530   -1.64337531544363
O           1.37132826663647   -1.26671087800839   -2.14900649580811
H           1.66538441991288   -0.94072178241000   -1.27590673280543
H           0.93507812713563   -0.50954534362628   -2.55039983504948
O          -1.60118101399764   -0.71338285185218    1.82727689785877
H          -0.98816935304977   -1.46031894006294    1.93522197772625
H          -1.02756795294080    0.08935182781731    1.83481078465903
O          -1.91617701583304   -0.73668105107906   -0.66626836741021
H          -1.20430305388872   -0.00933583260582   -0.86840116834424
H          -1.43494870701525   -1.65460623927765   -0.92947157511998
H          -1.95631511886592   -0.74777173057640    0.38069640924310
N          -0.15796586850162    3.72930947221166    0.04650555079502
H          -0.31088131787428    4.69215440903918    0.31764113630238
H          -0.47191750923188    3.11643341135730    0.79345545035205
H          -0.71510778334805    3.52815387348863   -0.77380597679024
