    26
        -50.46564168  Gyration_radius:  2.41971559735 Dipole_moment: 2.421
 S           0.62779138512621   -0.64534631512850    0.93534744210076
O           0.60555691169266    0.82368405287428    0.83425831732640
O          -0.68086949557641   -1.14939074697320    1.31540211242134
O           1.10257562164471   -1.23136873510844   -0.31256825727296
O           1.65785283530945   -1.00963417875298    2.02873935148016
H           1.23964500105804   -0.61080155655179    2.84527429259241
O          -0.54158664993409   -1.47025405933382   -2.33043192427482
H           0.09250080495475   -1.45750010757491   -1.57135562260014
H          -0.35703992969779   -2.27446603003183   -2.81764352827314
O           2.29736256778743    0.87900490597540   -1.43064319428782
H           2.22867741228295    1.47747086178535   -0.68096463887210
H           2.03730594058736    0.00934586501956   -1.06864981910394
O           0.05945921280619    1.15701937056212   -2.80846872379753
H           0.98706035658185    1.14616352462630   -2.45925613201309
H          -0.18633696200744    0.21907933297082   -2.91033766885884
O          -2.41315648732306   -0.53216840509532   -0.55305521596867
H          -2.03113534768572   -1.00137530080090   -1.31411942389064
H          -1.90745892446326   -0.86083856879912    0.22789952865980
O          -1.18824141392295    1.65734893835464   -0.70357010194513
H          -1.84228620635365    0.84014312760540   -0.65510226495073
H          -0.45222240648228    1.41283358453873   -0.01452274863417
H          -0.70226481193239    1.56055695377955   -1.65135904113518
N           0.07414798135266    0.15075628726428    3.72598213821095
H          -0.65909707091005   -0.28065828471095    3.17077647224078
H           0.10238280751465    1.13435598240388    3.49028814748918
H          -0.15062311241135    0.05603949110307    4.70808049335673
