    26
        -50.45650397  Gyration_radius:  2.43671421164 Dipole_moment: 2.850
 S          -0.56419100385843    0.18981841231347    0.58676165942059
O           0.40507775904217    0.52317599808304   -0.46332558366312
O          -1.39154631787858   -0.94392938643444    0.18331284190408
O           0.13212752762224   -0.08531602559644    1.85151555351873
O          -1.44085459382507    1.40873377779136    0.84711403688607
H          -1.96961566522034    1.68019791463819   -0.04150500948025
O           2.02619488583838    1.91569476669143    1.23663535020439
H           1.63608516698237    1.68342730161635    2.08340858574440
H           1.35332357701769    1.67031088979524    0.58239748640371
O          -1.35737646962119   -0.19174255586364   -2.39785084369477
H          -0.48678799449160    0.13746674289210   -2.13350992496608
H          -1.61815750135823   -0.73178440581023   -1.63485452298297
O           2.94093610050356   -0.25150011806835   -0.15761704943547
H           3.13894837950064    0.54975845558028    0.36017983433043
H           2.07459892512325   -0.03680831665898   -0.56354033379663
O           0.14497642588870   -3.03230289610776    0.12679079558124
H          -0.48863513248741   -2.26701343881640    0.08826173761621
H          -0.34605014285532   -3.76733237374191    0.49912873468482
O           1.87986385751354   -1.79079775032818    1.50697480628213
H           2.46730697590404   -1.24354667389907    0.81836745913320
H           1.15334043043082   -1.06542719902780    1.78907843520941
H           1.31252160479587   -2.43848583852845    0.95553555540412
N          -2.64774087719738    1.99456001155859   -1.29874366166950
H          -2.30674177439255    1.25665514932885   -1.92951621938555
H          -2.39340205071687    2.89988381082107   -1.66961070634998
H          -3.65420211233741    1.93630373793199   -1.22538898688428
