    26
        -50.46293015  Gyration_radius:  2.50925563928 Dipole_moment: 3.643
 S           0.36910798734205    0.97681839040124    1.76565327284112
O          -0.45983952000488    0.02225398674184    2.46443251617164
O           1.66075779123779    0.41198356329914    1.36832586696869
O          -0.27956652282210    1.65796176442772    0.66467454795397
O           0.71353209179647    2.11530593698989    2.82201125583100
H           0.80929685458170    1.62829405637454    3.63393428995321
O          -1.29349003104074   -2.08446506144625    1.17676955805952
H          -1.03230787033692   -1.26504547210869    1.66508961390560
H          -1.59946557460711   -2.70086742200657    1.84427166364508
O           1.06799849725246   -1.69882104069402   -0.23973761830297
H           1.39209240854663   -1.04499706791311    0.40322154493141
H           0.24214563513028   -2.03530092478727    0.13759330641424
O           0.91891168220678   -0.14281031434815   -2.40561485656426
H           1.00757985473605   -0.87720875610415   -1.75606781992103
H           1.53548223586873    0.93719434367577   -1.65417584497968
O          -2.79236813207492   -1.49062327160218   -1.02821003955178
H          -2.32627490869352   -1.69677817365292   -0.19646154406423
H          -2.57410682516331   -2.19289569653193   -1.64339606035745
O          -1.43424561639771    0.77391492166893   -1.69216152318013
H          -0.02517968251971    0.15694936906653   -2.32071921936119
H          -2.05342089486661    0.04103165448368   -1.50808181981045
H          -1.21021793440321    1.15024086884704   -0.82732806216504
N           1.81827338281718    1.69558043468593   -0.88507365239234
H           0.92972528694468    2.10974351321753   -0.54945091253220
H           2.49036795121087    2.38289828566556   -1.20534610047413
H           2.12521186325782    1.16964212165512   -0.03415239300976
