    26
        -50.46256831  Gyration_radius:  2.41337008672 Dipole_moment: 3.846
 S           1.05450276447440   -0.25181871789281    0.67156070580247
O           0.91157366591095    1.00731881069530   -0.07044086651557
O          -0.03503921677953   -0.39052822841260    1.62737186773517
O           1.12858877483740   -1.38772645970116   -0.23777658849832
O           2.39866351317433   -0.19988158794539    1.43635988508590
H           2.25996086191409    0.56401845719121    2.06128835656971
O          -1.72612969836197    1.08430111492797   -0.15702392817363
H          -1.98967490801646    0.81535899087842    0.72703744386361
H          -0.74694256194733    1.14217280208711   -0.11251432031106
O          -2.14007456323866   -1.15641627089857   -1.51144237590943
H          -2.14097518099059   -0.25310232541136   -1.10823623984698
H          -2.00530638426849   -1.76762097555173   -0.73774226930044
O           0.54633090485636    1.30224846717356   -2.65295576282401
H           0.83892228718564    1.29987726004717   -1.71193911765127
H          -0.25384528275587    1.83309100376040   -2.67801946282541
O          -1.35201912584967   -2.46888385130308    0.62184475758913
H          -0.93282314840070   -1.72739539000887    1.10818404826281
H          -0.61687212094752   -3.02799717482068    0.35766366914209
O           0.10563503422774   -1.21375694234744   -2.53091691543492
H           0.30195234723739   -0.24129804100245   -2.76331884538155
H           0.62498067709438   -1.36904421449828   -1.66022576067649
H          -0.95018811985482   -1.23345175708751   -2.17577199442035
N           1.39167802663184    1.76562462327908    2.81730377053718
H           0.55040358848294    1.19801455549894    2.77483299388248
H           1.28849872897690    2.52545901898331    2.15717422877637
H           1.48819914645813    2.15143683234254    3.74770272050280
