    26
        -50.46293005  Gyration_radius:  2.50921747777 Dipole_moment: 3.640
 S           1.41793566536001    0.44299979155716   -1.41405468503349
O           2.15049671047977    0.39906600970948   -0.14637211869567
O           1.24233872659224   -0.86727136650602   -1.99643556456549
O           0.20761641825961    1.23060328971160   -1.30651184447538
O           2.35671428069560    1.24648943727485   -2.41599304897075
H           2.95755164960261    0.57706474293123   -2.72657657402491
O           0.67020014033718   -1.18845070896242    1.49161600068902
H           0.28525921386452   -1.83388174140458    0.88094856876061
H           1.32959314745792   -0.70412318377318    0.96584642134879
O          -0.21598280454382   -2.61317277559979   -0.72528861290432
H           0.29474283560708   -1.94709993441164   -1.24839041758457
H          -0.01354374124053   -3.46469852473715   -1.11646484703031
O          -2.78858116581319   -1.79007653722861   -0.31724963476747
H          -3.01810835704572   -2.18211133976834    0.52706223190853
H          -1.89391564081873   -2.11084769642985   -0.53684120029587
O          -0.85306089460686    0.86062926200629    2.27588629391553
H          -0.36138614804655    0.01364735668525    2.17611074308324
H           0.09751056147453    1.77867581262087    1.67255055293072
O          -2.19210944887537    0.84542374164142    0.01917552797200
H          -1.51999394449255    0.85447314357968    1.53858022846389
H          -1.46344507644498    0.98088743811393   -0.60575632696726
H          -2.54233125443893   -0.04581650636296   -0.17394188744530
N           0.80670203443293    2.30889353349333    0.99221402945480
H           1.59261567371637    1.64725078143430    0.79240993611732
H           1.11060219755171    3.21428358002321    1.33075853103762
H           0.34257922092324    2.34716240444334    0.06671767709320
