    26
        -50.46256833  Gyration_radius:  2.41329543525 Dipole_moment: 3.846
 S          -0.01225066664611    0.32253069150133   -1.23447507337257
O          -0.88215799273882   -0.74446882261831   -0.72354063759071
O          -0.28032232643303    1.56422355981233   -0.52288221718130
O           1.39032858290826   -0.06198331120364   -1.14849053502425
O          -0.33394323844634    0.51708473441385   -2.73557795414788
H          -1.28423032955667    0.81639762619752   -2.71367586372831
O          -0.14703794754083   -2.96316041091630    0.47201782821493
H          -0.63952520662502   -2.91285005607845    1.29523247335688
H          -0.50837450383392   -2.24847824716805   -0.10212552013927
O           1.61671952524618   -0.15658049034102    2.35878952411280
H           0.62775063828825   -0.14816752273649    2.33617515207778
H           1.87707683465447    0.69686341351668    1.91774504875733
O           2.00070752454388    1.91633564125846    0.79447968898063
H           2.63209616489682    1.65208429505534    0.12041433183589
H           1.13563887466364    1.91799753165256    0.33210330845678
O          -0.96759231551400    0.02985979695207    1.79916460120870
H          -1.01972586287150   -0.27888726103840    0.86847745834405
H          -1.07454805612999    0.98296992074112    1.74074219597138
O           2.11172082941935   -1.76709645483403    0.55721467232452
H           1.97081207626465   -1.09887074871260    1.43848352158548
H           1.31183233491088   -2.39835382906816    0.55788586151239
H           1.92263513040643   -1.13029736826434   -0.22390390196140
N          -2.70274998140851    1.30780380924411   -1.99460250640405
H          -3.42094328245539    1.93533904361209   -2.33247397269348
H          -2.17976114245848    1.76427582318527   -1.25312673537253
H          -3.14415566355542    0.48542862581044   -1.60405074914085
