    26
        -50.46407702  Gyration_radius:  2.36412736936 Dipole_moment: 3.022
 S           1.13424884395002   -0.32631397737484    0.75316748149233
O           1.03735787564924   -0.50752495715853   -0.70378755006571
O           0.19324157991132    0.70521110376334    1.19380328133807
O           0.90241710051253   -1.58308970460668    1.43679171728958
O           2.56640805272639    0.16130689818963    1.06253920617834
H           2.58347890338590    1.05209278282807    0.59922681818488
O          -1.49560902271981   -1.19110243726731    2.37116445765478
H          -1.42372580466443   -0.24832930380177    2.55504980725608
H          -0.56746190753322   -1.45837621080092    2.15346022648166
O          -0.42500474168852   -2.64002363023235   -0.81780189210609
H          -0.07798475182397   -3.12930374340312   -0.06444144580127
H           0.19585294280938   -1.87293276056359   -0.90548556256977
O           0.07796976782423    1.19743107140861   -2.42865761753324
H           0.52855505399856    0.56337312810461   -1.82225632057368
H           0.01853234213328    0.75539397732787   -3.27709418269939
O          -1.77999070856441    0.98516421117205   -0.47820229681637
H          -1.06274153316651    0.99819615833850    0.20450451034721
H          -1.30797632394106    1.14704505055766   -1.32054146706243
O          -2.43945815496298   -1.36389027019247    0.03030741278347
H          -1.69982068387609   -1.95202533069235   -0.39947834001147
H          -2.19351619746333   -1.34771884305122    1.04030573932440
H          -2.25491852528961   -0.36157083538043   -0.28421523341898
N           2.03926355726292    2.41188179304670   -0.14009065778246
H           1.16764679185494    2.39108947087882    0.37993490902814
H           1.81008731744024    2.29600327398831   -1.12018381608162
H           2.47314821622840    3.31801309490973   -0.01801920483051
