    26
        -50.46407700  Gyration_radius:  2.36411372326 Dipole_moment: 3.024
 S           1.21921403800254    0.17321639384770    0.66659884402754
O           1.15748881469617   -0.39540560496533   -0.68119373670662
O           0.02029806777832    0.98558496229985    0.92626410156796
O           1.35870056788528   -0.86063325833354    1.67273279860834
O           2.43949928611377    1.11680005431485    0.73820945838312
H           2.26438557768417    1.73562009420307   -0.03304468004700
O          -1.29074845435160   -0.56301134545322   -1.54442064799188
H          -0.32254974815323   -0.51080309613219   -1.34283330506397
H          -1.60476806875992    0.35811919726265   -1.43762847174443
O          -1.37749091774279   -0.67338490940215    2.33780897842005
H          -0.91292312492284    0.07095875826733    1.87762386008488
H          -0.68080777974241   -1.09264023645167    2.85376895302010
O           0.64232642072351   -2.96129580466397    0.31221905537716
H           1.00717723906990   -2.28108376589591    0.93229270651329
H           1.00240500902848   -2.70521981204268   -0.54369123688658
O          -1.57048163446296    2.03465138637868   -0.85468831468589
H          -0.94711775905797    1.73091215466206   -0.15338013502795
H          -2.33325951607872    2.38939319559438   -0.39528060643726
O          -1.75468768570016   -2.15205424698334    0.31865038687457
H          -1.72824397497910   -1.57394452457100    1.18051787558938
H          -1.69110158920745   -1.47709481190386   -0.50479154863500
H          -0.83214686250801   -2.63126402496790    0.30797946758841
N           1.61626713138824    2.31301778693017   -1.42537316267532
H           2.14803958594687    2.84331534184021   -2.10376987615663
H           0.70822025902969    2.74948505235029   -1.31824727573156
H           1.46230511832411    1.37676105381516   -1.78632348826790
