    26
        -50.46220854  Gyration_radius:  2.42276553786 Dipole_moment: 2.974
 S          -0.02854287317523    1.22166642920813    0.28600110206211
O           0.84867461503501    0.58079410670908    1.25592802082405
O           0.28453063759112    0.74988848067043   -1.07085539280997
O          -1.43431105745109    0.99786744774255    0.59542690170176
O           0.21054834944492    2.74751721286886    0.32034610675379
H           1.20493370615065    2.81933061308729    0.23444169926894
O          -1.24444176876599   -1.33609452286468    1.83067121597850
H          -0.48652365905440   -1.23903866049305    2.41266721121124
H          -1.38304651687303   -0.43877538560027    1.46201026531077
O           1.88956614564667   -1.36824663403333   -0.19555973037913
H           1.86051197477326   -0.90741915251720   -1.03957608389229
H           1.57926083754119   -0.69932111006145    0.45286572357430
O          -0.39406591139781   -2.68650194460051   -0.28072734233137
H           0.55707082441367   -2.41085469445084   -0.24029489278160
H          -0.79053531954355   -2.33971143206754    0.55764816361126
O          -3.33610406107493   -0.22456457479598   -0.74102089791119
H          -2.77750844912627    0.40831650717999   -0.23746636352861
H          -3.68432419861613   -0.84193841157817   -0.09267303742122
O          -1.23068421597112   -1.05142504673494   -1.93856274390864
H          -0.89344118132017   -1.86193933796314   -1.27213842984388
H          -2.15254774893547   -0.77556390372712   -1.60259469899517
H          -0.60902127694011   -0.26289147843682   -1.68394458478924
N           2.78735861441126    2.37616546817264    0.21842859604045
H           3.51803366015614    2.92021258865376    0.65815465783822
H           3.11861527674119    2.05907588636169   -0.68296661140936
H           2.58599359621792    1.56345153940809    0.79379114589078
