    26
        -50.46302230  Gyration_radius:  2.506750997 Dipole_moment: 2.715
 S          -1.22865587254795    1.63829533916581    0.10833436125191
O          -2.32941883486754    0.71636016239856   -0.05035434719433
O          -0.39278074768287    1.32289084410776    1.26505533924033
O          -0.43511362711659    1.84404690622318   -1.08922494601689
O          -1.88132206251269    3.05290508168370    0.42501560128957
H          -2.59431718580099    2.82682524259311    1.01340809372043
O           2.50582765198348   -0.56128815495285   -0.27613068676237
H           2.29862775887161    0.86257995360097   -0.06547938744100
H           1.86205395799069   -0.72153122844530   -1.00414487655136
O           0.43815859302633   -0.58054002993331   -1.96143062239564
H          -0.30842777785767   -1.15954373977121   -1.74790131269069
H           0.10453905219830    0.32104973123424   -1.81477577529792
O          -1.91455884164044   -1.68005841940727   -0.98315158270972
H          -2.73783534387780   -1.95514787878232   -1.39001303774606
H          -2.08930402669769   -0.78543675180645   -0.59813933101392
O          -0.63921670427405   -3.09706075463679    0.96799294642282
H          -1.16291985641990   -2.62093815780481    0.29612193180510
H          -0.11112316155766   -3.74206849558442    0.49442621494832
O           0.95125546691100   -1.04119982894394    1.78659253871328
H           2.04867754394368   -0.88846693098999    0.54279161242730
H           0.37315196999729   -0.26335233928075    1.75435883893818
H           0.37139025557936   -1.81326521584722    1.63853959461261
N           1.87431476199217    1.87603492540814    0.12925650484785
H           1.27314438101144    2.12835123896495   -0.67421458031843
H           2.56842603421104    2.57959462033575    0.35264858793342
H           1.15542662515592    1.74096387050108    0.88041830997269
