    26
        -50.46273310  Gyration_radius:  2.4459330025 Dipole_moment: 1.685
 S           0.51463541825807    0.91205716133076    0.79332109140233
O           1.83671918736218    0.47636271572214    0.37536271943914
O          -0.28438923681243    1.33426858178834   -0.36208728291366
O          -0.18357056609033   -0.12551519036582    1.54847637950810
O           0.65216983805349    2.12938229236004    1.73963240889496
H           1.13534816856157    2.77959423189382    1.15721295598212
O           0.03534494238020   -2.60429691567588    0.74508608800112
H          -0.00812201936433   -1.68434603530545    1.10783834697531
H           0.23128059804296   -3.17571691506484    1.48871985585264
O           1.52120256938907   -1.52216592569520   -1.29046952603580
H           1.17300758268533   -2.18666248353819   -0.67199143860396
H           1.81361276974921   -0.77668728388496   -0.71244129378162
O          -2.15463050320080   -1.99845485051433   -0.79627066084734
H          -2.59439730097518   -1.38127209348548   -0.17182589297933
H          -1.47679030670294   -2.45712032129003   -0.26801355401631
O          -2.79698367692818   -0.21803953954964    1.07707134397926
H          -1.85085196286810   -0.05720760604084    1.27551390675272
H          -3.25247111563707   -0.23585378252979    1.91959622046391
O          -0.62452035377214   -0.45845219927257   -2.06295784348967
H           0.29132704413621   -0.94013950079880   -1.90970345301900
H          -1.34481882693759   -1.09946184610673   -1.63424407413861
H          -0.55868400329418    0.35864619520336   -1.41871933126171
N           1.89362424233743    3.26536043922931   -0.23442668742028
H           1.12626901987308    3.25749098049288   -0.89529659421568
H           2.38497421346012    2.38261578107960   -0.33403172636823
H           2.52071428829166    4.02561412001920   -0.46535192815869
