    26
        -50.45628219  Gyration_radius:  2.47366006549 Dipole_moment: 3.188
 S           1.51109429441224   -0.10391098535268    0.08788308248343
O           0.76013963497749    0.04412554879817   -1.16839095318661
O           1.09060898927308    0.95954478419041    1.02356504194173
O           1.35736207301060   -1.41687827984691    0.65414647889132
O           3.00410995248688    0.13067735909306   -0.23216383971887
H           2.97830684256881    1.05836338149238   -0.59786717854866
O          -1.05301490900910   -1.80271010279973   -1.79384551899554
H          -0.73876922179937   -2.43937079158469   -2.43704728175320
H          -0.29440461752903   -1.20738304288818   -1.60556889291711
O          -0.95912884831740   -2.70194547548511    0.78239935922537
H          -1.21531155820616   -2.53064503736798   -0.14153740853463
H          -0.03413115481940   -2.38430175493426    0.83245059568502
O          -1.70012452884121    0.95922172297476   -1.09158201789054
H          -0.74526248701608    0.74783863768785   -1.22532321426927
H          -2.16246915518267    0.16159973812241   -1.37181784199388
O          -2.06289845539588   -1.03147641843178    2.39087753458092
H          -1.70573116684002   -1.73695883524945    1.76098289446774
H          -1.65946527439790   -1.21205946471271    3.24177822920729
O          -1.33924681535343    1.16732520164306    1.41066281504951
H          -0.28035760066298    1.10123517574210    1.32529225726643
H          -1.64580627262487    1.15256932985203    0.42961421234128
H          -1.67018030855258    0.27768229411814    1.85325131456911
N           2.32656991856519    2.51784597649486   -1.01117576117722
H           2.76596433973470    3.41781036546137   -1.15492855181553
H           1.75950499220816    2.54990948611625   -0.17030430194495
H           1.71264132732601    2.32189122684536   -1.79135104296428
