    26
        -50.46192238  Gyration_radius:  2.42600326739 Dipole_moment: 4.592
 S           0.00947826347230    1.26512289697686    0.58478289321722
O           1.18473586204351    0.72519244758014    1.26606419424836
O           0.05541884234795    0.89008063260994   -0.84174783466907
O          -1.22982525218295    0.83631447473897    1.18691557305429
O           0.07158339208594    2.81291824267156    0.64806199642335
H           0.95614205223968    2.99933222214927    0.23655495516079
O           0.92461102236322   -1.80939854005841    1.65672745873662
H           1.03545741522730   -0.82165674750594    1.57954142115343
H           1.51915851094267   -2.08945153047971    2.35413479154670
O           0.62265307037635   -1.66739852648774   -1.06302319050938
H           0.93028705041599   -1.90834802080529   -0.17255388537735
H           0.53967443964835   -0.68277368528855   -1.05252315142235
O          -2.28197400914494    0.27007368140302   -1.80132288748353
H          -2.20942303630785    0.43911956765233   -2.74269036482790
H          -1.45521719419568    0.62931932020530   -1.38824591662624
O          -1.78654436763319   -1.67931495795769    1.51637366663103
H          -1.74513177429632   -0.69005441408408    1.49860889423389
H          -0.87316800846850   -1.94311075708609    1.73927739140526
O          -1.85667743759520   -2.08689310985405   -0.93344535034618
H          -2.18439582129750   -1.19555347438575   -1.31345770468039
H          -0.82278627854991   -2.04777205858212   -1.08341417432510
H          -1.94028914879823   -1.98415492253534    0.13848237467356
N           2.44449133968363    2.60355546058210   -0.42780265056991
H           3.33801077762690    3.07848496850641   -0.42184886209654
H           2.26743383934483    2.25330933544727   -1.36046420050009
H           2.48629643063776    1.80305751458158    0.19701458295953
