    26
        -50.46192238  Gyration_radius:  2.42598197834 Dipole_moment: 4.593
 S           0.45566260579321    1.25795840247308    0.39044500229817
O           1.33759173088375    0.45791691125157    1.23836174422062
O           0.39517466036486    0.65799724799865   -0.95645036357313
O          -0.86838123070311    1.40455983500525    0.94516858007386
O           1.07530808401697    2.66995158873815    0.22957139616680
H           1.97636880868794    2.45820667354524   -0.13070119385490
O           0.16342740581060   -1.71486014327441    1.97643038923514
H           0.62800705900481   -0.85886609137447    1.76355644674385
H           0.59903190272431   -2.06684827241249    2.75398148930723
O          -0.00194476219654   -1.93262686846971   -0.75025529737431
H           0.27882279143988   -0.99587082436151   -0.89208122233669
H           0.17588962348253   -2.11435938919435    0.18833571413206
O          -1.98448510605904    0.75747604229364   -2.00319189145260
H          -1.09354423407237    0.86330754386512   -1.58097651543417
H          -1.83339318283504    0.72969795032184   -2.94998086608725
O          -2.31027411712818   -0.65582794644101    1.59515277786623
H          -1.91123378563267    0.23625078126125    1.43507145241186
H          -1.56101572467611   -1.18556639617706    1.92915766494958
O          -2.46630655944011   -1.41599364507167   -0.76498622925261
H          -2.43819568868170   -0.54345158403310   -1.29810059815631
H          -1.48593097837759   -1.77239085294128   -0.83337151939878
H          -2.53190904624749   -1.11230655651755    0.26950308954495
N           3.23356534382817    1.45426780401063   -0.60475418105472
H           2.96671417850215    0.80769591480130    0.13257631828331
H           4.23825018334865    1.57457590211379   -0.59555153179496
H           2.96280001816744    1.03910596259437   -1.48691065547222
