    26
        -50.46385740  Gyration_radius:  2.40993539495 Dipole_moment: 6.532
 S           1.03271451026060    1.16608987528951   -0.45946173435359
O           1.24620563638739   -0.27254818814528   -1.02274073881005
O          -0.31127824472426    1.18066653090878    0.12945997936060
O           2.05078337479612    1.47032388790831    0.50906368921104
O           1.06412827392860    1.99825326010342   -1.67020542333060
H           0.33872208827885    1.22240949767619   -2.54963780180825
O          -1.12693086975405    0.27983573334233    2.53739374428893
H          -0.90139679415872    0.78467574725809    1.73620049141058
H          -0.27784927106648    0.14393303524638    2.97591322733634
O          -2.09160228853496    0.01160564775729   -1.25546276291296
H          -1.42039167407534    0.46171200637619   -0.65709732630697
H          -2.91534849223211    0.48456614990191   -1.12238798964496
O           1.68606225755872    0.04524546360361    2.67766827767135
H           2.49713654334445    0.07572842667199    3.18760132708766
H           1.82372823509631    0.65566851910380    1.91317139696535
O          -1.55279230553088   -1.86800715411239    0.97375665930624
H          -1.85092209440983   -1.45509808710318    0.15524370510650
H          -1.56149722894805   -1.15658694196311    1.65289712653700
O           1.09071100611727   -1.90077293716533    0.87331317005092
H           0.11130377273815   -2.04890862967718    0.92523111190951
H           1.23316550776633   -0.96974571821010   -0.25085919218165
H           1.32049535362282   -1.35630912726489    1.65134730738631
N          -0.24946801501544    0.44486698876155   -3.13639264719573
H          -1.10279914033027    0.23575176715803   -2.55787587681447
H           0.34651727052865   -0.38095920903582   -3.13875415404426
H          -0.47939742163216    0.74760343563470   -4.07738555615047
