    26
        -50.46318590  Gyration_radius:  2.50872040837 Dipole_moment: 7.449
 S          -0.74559134537587    0.67099906909394   -1.82912457431840
O           0.00058496993126   -0.46338967183901   -2.35051050691762
O          -1.93318505516000    0.20065787066879   -1.09779668360777
O           0.03570515027662    1.59900945276427   -1.06116880479292
O          -1.30020150872609    1.45170026887215   -3.08670145279398
H          -1.66650577107915    0.74894520654603   -3.61303610754472
O          -0.45340873801525    0.51010388568699    2.43236834842252
H          -0.75821029437826   -0.62036179900555    1.58212376089822
H          -1.10342213006200    1.16511752239314    2.08999936157136
O          -1.94195592082124    2.08058191907027    0.85304474272954
H          -1.23409819351312    2.62919856768184    0.49978412185558
H          -2.12266522711077    1.44289154041729    0.14044559179602
O           1.09544692637560   -2.12782266496082   -0.73566584521459
H           0.73697958507600   -1.45067952210236   -1.37893643532586
H           1.35751122392396   -2.87557220143321   -1.27577950724991
O           3.15212225065934   -0.82224550734251    0.55348236773961
H           2.46793323345265   -1.29746869935009    0.04903921485958
H           3.33288308402050   -1.33885618908455    1.34024806273073
O           1.63545445360842    1.39456837830526    1.13791789895179
H           0.41836157954045    0.85331337095480    2.09243288262611
H           2.30749350363365    0.72444099457953    0.92082443181014
H           1.17598713694513    1.58623733729340    0.30319052629106
N          -1.04713109894220   -1.37017570927850    0.80844280356852
H          -1.70093304137128   -2.04877668492700    1.18300676140598
H          -0.21467432140575   -1.83231996974951    0.41090481270610
H          -1.49448047148666   -0.81009673525446    0.03146424779386
