    26
        -50.46318591  Gyration_radius:  2.50859278363 Dipole_moment: 7.447
 S          -0.77076033197862   -0.52349279902226    1.86636187394382
O           0.56032553808769   -1.07304303368658    2.07022658481366
O          -0.71837858017304    0.94725522901357    1.88854236541791
O          -1.45522357562923   -1.02709898151240    0.70905936312305
O          -1.62035396515096   -0.93964815160582    3.13264778741595
H          -1.03688258774843   -0.71185003758081    3.84868404731983
O           2.39327329677153   -0.65933769140790    0.32501428049070
H           3.21180236885601   -0.93452294844964    0.74195271122188
H           1.67310109901410   -0.89076874703966    0.97977076643153
O           1.70734181251087   -2.03563427197676   -1.96244261875554
H           1.97793089675676   -1.60562396713752   -1.13163493798499
H           2.21590174323747   -1.63266614507419   -2.66783143064087
O          -0.74661458812927    1.46784567451101   -1.91624539901847
H           0.28084549338173    1.60077618655021   -0.90655008261001
H          -1.54892168520011    1.63255178041891   -1.37034245796377
O          -2.61039121778968    1.41781407153739    0.00732548121250
H          -2.89972292297103    0.50680095887697   -0.10747819039256
H          -2.02154440346436    1.38152560599212    0.78125042190967
O          -0.89115238579831   -1.13940818982369   -1.95687784538289
H          -1.16960498646861   -1.24930374406851   -1.03224115853794
H          -0.79268912345709    0.48959067986989   -2.10175455314646
H          -0.03861677969674   -1.60356503182961   -2.03190092457918
N           0.94697408391092    1.65216947335584   -0.01306266640355
H           1.37691103620086    2.56671301074097    0.07047897717066
H           1.65815323368404    0.90503063635019   -0.03720951822317
H           0.31829652126048    1.45789044295942    0.81425712318348
