    26
        -50.46318597  Gyration_radius:  2.5086458618 Dipole_moment: 7.451
 S           0.17443077335202   -2.05177012561293   -0.33335341275152
O           0.61726475404357   -2.06311047491694    1.05195990041911
O          -1.27232701798696   -1.78865184942992   -0.39857806265495
O           0.92602413507640   -1.18296979655156   -1.19455586955405
O           0.36463272688665   -3.52583878568905   -0.87125000767164
H          -0.02569961111286   -4.04457030279704   -0.17586786084167
O          -1.02613878334413    1.95008146905909   -1.23605721516740
H          -1.26211756614203    1.28515536533181   -1.92245991691744
H          -1.40014422606003    1.22632795106795   -0.04024845985161
O           0.48116968670155    0.07903228149545    2.45546828812328
H           0.63459446687138   -0.19701071496844    3.36092625118034
H           0.60808089313363   -0.74560112165380    1.90343617055265
O          -1.28130042371194   -0.30221986033325   -2.66320222997929
H          -0.35464033924586   -0.42299718411105   -2.89460244572478
H          -1.42354421421681   -0.92526725688735   -1.92927516669072
O           2.31389963887416    1.86915727903366    1.43861665636310
H           2.03925265445580    2.72980628004085    1.75863898238268
H           1.71540727709464    1.21100312516469    1.83486378084954
O           1.54108432152887    1.47394389778161   -1.16957565661683
H           1.47674038403068    0.50725041675489   -1.24663370207425
H          -0.02959606503606    1.93681422467731   -1.23743497576595
H           1.97579121754477    1.64164535776728   -0.31473691925946
N          -1.65550344556675    0.52142985258872    0.78573056584193
H          -1.60282192000371   -0.44252867071831    0.35500271162491
H          -2.58571201791611    0.70228277274889    1.14659995190638
H          -0.94882730922216    0.55860586045534    1.53658865228396
