    26
        -50.46564191  Gyration_radius:  2.42024689201 Dipole_moment: 2.441
 S           0.86671507548511    0.48509389132770    0.83369333189272
O           1.03875081355004    0.51885626380638   -0.62843733493202
O          -0.19635655229196    1.38763133813967    1.24192111767094
O           0.63190002521105   -0.88168085675654    1.28426624227947
O           2.20264342917192    0.94618729834768    1.45931176982743
H           2.26175163559656    1.89317470567626    1.14167693470124
O          -1.75518297377825   -1.92100619894851    1.05459399890116
H          -0.85579478832742   -1.54316170981463    1.21857263671032
H          -1.94077041340291   -2.49740880495223    1.79721064286760
O           1.52444239082017   -2.26018456482918   -0.82148707735678
H           1.31694431020743   -1.88677725343589    0.05736263973480
H           1.89658774166820   -1.52080646318881   -1.31100427921242
O          -1.01563116662891   -2.42019996869026   -1.53320392953657
H          -1.42864235025059   -2.46820389498236   -0.65134181997693
H          -0.04512400326538   -2.54174563603676   -1.37235917909069
O          -2.45615457895053    0.58606070387582    0.18118089194063
H          -1.71539851163289    1.01673183925569    0.67035292102442
H          -2.53541990353170   -0.29906149654853    0.57574147283971
O          -1.09201730587810    0.05445647782053   -1.86188423786836
H          -1.10357937363671   -1.01477168344548   -1.84857351074558
H          -1.77779382465711    0.33726127289515   -1.12198254149698
H          -0.17593771206610    0.30381497970726   -1.44362466028654
N           1.75313842330383    3.27175891228773    0.39910863422049
H           0.78976550576022    3.08243567905025    0.66035866154005
H           1.83499084648698    3.13750900607015   -0.60045102168209
H           1.97617328095829    4.23403616332539    0.61899771604356
