    26
        -50.45568735  Gyration_radius:  2.56743535517 Dipole_moment: 1.950
 S          -0.66314170668569    0.47750703062309   -0.59421326742707
O           0.24751062807480    1.53082792826266   -0.18562914257582
O           0.06581560441371   -0.81188950776663   -0.69868575883510
O          -1.80021117872707    0.34814493915985    0.29798602250289
O          -1.21165542839582    0.78609590659972   -2.00159053507524
H          -0.44232436947506    0.55447568214062   -2.61048566011026
O           0.93288085238672    0.03178514978419   -3.15233125378887
H           1.54455099110482    0.77788934034546   -2.91926388057397
H           0.99848455480458   -0.59948426295302   -2.42355434859203
O           0.71094020369505   -1.13829837109717    2.97203715005416
H           0.35248547591557   -0.21582960893537    2.83287526496341
H           1.66609323523233   -1.06346547599284    2.93700858219074
O          -2.79567676348458   -1.87309487864498    1.16825695504870
H          -3.38163778534731   -2.22608840960782    0.49622442746639
H          -2.54539136108883   -0.96026811876896    0.86927891248351
O          -0.20752250562123    1.23391753838738    2.39293521348312
H          -1.16574926906960    1.17619539714983    2.32925750634654
H           0.07474125375573    1.45137978567708    1.47881857952073
O          -0.32873237522698   -2.46345518272632    1.08153878992285
H          -0.12412119681263   -1.78913487740158    0.27018174539231
H           0.10265415047405   -2.00622468467351    1.90328115075488
H          -1.34388472570109   -2.37997051602914    1.20155178154930
N           2.28605097389067    2.08713155982373   -2.09379764902285
H           2.17360092513199    2.99606325429835   -2.52476145421543
H           3.22359895128674    2.04077321247851   -1.71502108994135
H           1.63064085547208    2.03501717988355   -1.31189804152113
