    26
        -50.46564190  Gyration_radius:  2.42018841282 Dipole_moment: 2.437
 S           0.81175853246942    0.94489785720682    0.36059804775609
O           1.34470506970273    0.85050377506523   -0.98789141617982
O          -0.65221052271731    1.10032213969746    0.32681913981821
O           1.17995911202997   -0.20389374029393    1.17973371311861
O           1.38627027541741    2.20049493062512    1.05490472159404
H           1.13162459942772    2.92446187325260    0.41288761281903
O           1.02287552881142   -2.60955883188093    0.17017567356318
H           1.15827324716423   -1.71369002106790    0.56720490505088
H           1.73326675418916   -3.15877253617142    0.50466198818724
O          -1.63306189356897   -2.43247241325166    0.80801085073034
H          -0.73341597350319   -2.76140342618267    0.62627674900538
H          -1.53962289637362   -1.84588770805559    1.60158371109818
O           0.36950033486298   -1.28933115565972   -2.14725861981727
H           0.70589674572392   -1.98331619444953   -1.55514592997335
H           0.84169090009197   -0.46840931600809   -1.87040536296649
O          -1.06576865969710   -0.55647931093863    2.58076993451328
H          -0.15234063762618   -0.43959339493968    2.25379432552999
H          -1.52447639127769    0.23751958275217    2.29092554604691
O          -1.78413365137613   -0.70580944454330   -0.99013678290607
H          -1.40573080727810    0.10729016709975   -0.46876171448328
H          -0.98632785359756   -0.98572676349064   -1.60891987697335
H          -1.84433790476819   -1.48190664431483   -0.25677259600401
N           0.51719213320994    3.56659281413590   -0.97311683603349
H           0.78836770379571    4.41139158388767   -1.45985032421985
H          -0.49233092663582    3.53424974132203   -0.91212298350995
H           0.82237720173231    2.75852644613568   -1.50796446592497
