    26
        -50.45568735  Gyration_radius:  2.56742552487 Dipole_moment: 1.951
 S           0.68714794285376   -0.68962293492663    0.27076053705364
O           0.74159757295577   -0.70913880151988   -1.17920893509255
O           0.35947720169686    0.67761167906411    0.74852499910577
O          -0.25567103878039   -1.65459484183380    0.80525835960997
O           2.07632594020067   -1.03308497736846    0.84440294320182
H           2.60342870208379   -0.18430811165176    0.71020932700355
O          -1.79197980223999   -1.36462757166637   -1.48933201747983
H          -0.84633838880033   -1.10742752302684   -1.53567061881811
H          -1.80907534326297   -2.05489961225262   -0.81933516837598
O           2.99772375718393    1.29567013266988    0.37476628059850
H           2.09465847491297    1.59251349895724    0.54881281086398
H           3.08699631999579    1.26727181936613   -0.61330553915040
O          -3.13675677933283    0.67889862841286   -0.58216786404663
H          -3.02217812256265    1.37494986271144   -1.23146590012796
H          -2.69393416386533   -0.13291475916419   -0.96120393903766
O          -1.92624880048678   -1.23009468026664    2.73153308038635
H          -1.46211035216778   -1.33802467694182    3.56370996656047
H          -1.30356242303428   -1.53775168492773    2.02233929875434
O          -1.91693699139335    1.04469714694554    1.60636318484318
H          -2.49140390307826    0.94244621432635    0.75211619829459
H          -2.05696212985910    0.18964072691753    2.15539426566468
H          -0.90646013713573    0.94429335439896    1.25490676919773
N           2.83675900057357    0.88264414498745   -2.26721239574730
H           2.52204861537898    1.56051381306541   -2.94986579847836
H           2.05266668418446    0.26159847210313   -2.05958633088495
H           3.56078814394717    0.32374071161002   -2.70074352387922
