    26
        -50.46460248  Gyration_radius:  2.41086584961 Dipole_moment: 2.673
 S           0.30939981552708    1.14684641752362   -0.73540419229224
O           0.57655110781116    1.79745575699081    0.55397732952986
O           0.97352781354890   -0.16250680430831   -0.77391279363034
O          -1.11107136117444    1.02571584007512   -0.99628245634719
O           0.92477046757878    2.02166403208443   -1.85131840345014
H           1.88729853033308    2.05356758630401   -1.58430229124235
O          -0.53299092505972    0.49891507633394    2.36895728312004
H          -0.06946994676456   -0.41586841568655    2.14176462971709
H          -0.05372021558101    1.15327532302395    1.71204126550474
O           0.46839681312351   -1.58466597359876    1.39429658311911
H           0.80483698716305   -1.13380656015501    0.58519548505107
H          -0.31947229411888   -2.07843239988863    1.09715695197969
O          -0.95939976679881   -1.47801709560400   -2.03640609372990
H          -0.09222659787265   -1.16564376022519   -1.71062449344830
H          -1.45332812683436   -0.65466184965506   -2.14120683283411
O          -1.86992477542984   -2.39518160690701    0.24111929931476
H          -2.31390435686441   -3.23769109520558    0.13919231914295
H          -1.56173876504984   -2.12359065902643   -0.66935877448438
O          -2.59547493590823    0.13420697090053    0.99749729045785
H          -2.55101057645713   -0.82062885688740    0.80080100019730
H          -1.49353155651086    0.39531713023829    1.94272759842421
H          -2.21871361345546    0.57697947078111    0.20338311609283
N           3.18967273925916    1.71626450074993   -0.62845990673408
H           2.73132815690816    1.98426936527623    0.23567560097989
H           4.14780409048845    2.04197493723404   -0.61550094717265
H           3.18239130214125    0.70424268963538   -0.67100856726352
