    26
        -50.45364995  Gyration_radius:  2.43638237784 Dipole_moment: 4.230
 S          -0.93780601191075    0.47557126806382    0.45165980775834
O           0.43813465965567    0.90623939944221    0.72790874600291
O          -0.93817208299209   -0.40099165263512   -0.74101715286224
O          -1.52843405599828   -0.21051438192529    1.57984087278884
O          -1.78214601608794    1.71733376113929    0.13459560827013
H          -1.16617072408816    2.32810288497537   -0.42698845390452
O          -1.29704325390410   -2.66319831749902    0.90294812965509
H          -1.51241942463262   -1.77406412858387    1.30629212551910
H          -1.42330325373728   -2.51249361334600   -0.04105478579449
O           1.53653217341153   -1.13211267467672   -0.74541227277540
H           1.87178451225492   -0.29807398154515   -0.39587312943226
H           0.57805697500332   -0.92391803507468   -0.90726688354897
O          -0.56598901493710    0.88261970330172   -3.06003228751287
H          -0.72371174089863    0.37432616086133   -2.23775811979616
H          -1.33898993794909    0.73980284942764   -3.60806353290026
O           1.29608516873067   -0.50474641203782    2.72389902778599
H           0.88285492033674    0.10228304227436    2.05353081290826
H           2.10150770371890   -0.08139038482869    3.02579080721377
O           1.17131660951926   -2.58329220227450    1.27691632260755
H           1.42985459094774   -2.08760109516703    0.39167114849014
H           1.25839578922679   -1.85355543209572    1.99134692548783
H           0.12223245608325   -2.74323440210797    1.17224451478821
N          -0.07349192885416    3.00861468827198   -1.25569419564621
H          -0.07720423418988    3.99462629850343   -1.47651264808391
H          -0.07969232172175    2.46100110171224   -2.11575856895248
H           0.75781841296847    2.77866554581181   -0.72721279809578
