    26
        -50.46460246  Gyration_radius:  2.4110272271 Dipole_moment: 2.673
 S           0.38101084317938    1.18037130312001    0.64142861590260
O           1.06598391406358   -0.11867797283253    0.64986273817056
O           0.47197869194874    1.77689592523958   -0.69777369074394
O          -0.99282455095157    1.05555682657752    1.08578750049767
O           1.11860232967669    2.10961622505972    1.63222695682948
H           2.03875020568746    2.14072759086996    1.24311531647385
O          -0.66921139525580   -1.39842109147133    2.20281333971238
H          -1.15949221115929   -0.57675012350704    2.33471580081544
H           0.14444565525561   -1.09118504120715    1.75644398366214
O           0.31417038981760   -1.63995164782481   -1.37441437992284
H           0.74296176196333   -1.15026636062274   -0.63440503050378
H          -0.42144168793426   -2.12877922067485   -0.95878631151578
O          -0.83700425465497    0.38753788343629   -2.30038966926936
H          -0.33331479075057   -0.51129794626239   -2.09555211476835
H          -0.28935338434424    1.07546036324582   -1.73815395235070
O          -1.84578640043719   -2.42421240826382    0.10019570675869
H          -1.42913816059280   -2.10984843778569    0.95182068613886
H          -2.25951550467888   -3.26626791569607    0.29290154759318
O          -2.70288106138273    0.06119072225606   -0.66341633521677
H          -2.61791866392389   -0.88355041473212   -0.43384802923148
H          -2.23586128475810    0.54255591963328    0.05685684220399
H          -1.73402810068459    0.29225765201856   -1.75118587012472
N           3.21465714506727    1.78051827886868    0.14328649220416
H           2.63867739992236    1.99608336867225   -0.66331794018024
H           3.24415202207240    0.77185403289476    0.23080918255630
H           4.15238107282315    2.12858247898089   -0.01102136568890
