    26
        -50.46009919  Gyration_radius:  2.46656624489 Dipole_moment: 0.823
 S           1.03074439978459    0.80438855734999    0.24032435295127
O           1.10471009861168    0.99216098851882   -1.19994028914695
O          -0.29135455559966    1.14374218609207    0.75584546134492
O           1.39623524726656   -0.56051427758882    0.62081675644225
O           2.07238017708977    1.73443388705546    0.92111286039703
H           1.74929198007702    2.62249896576311    0.62186038233430
O           0.06723962699603   -1.95506976941321    2.41140832191037
H           0.64000664000758   -1.41107331225007    1.82096723725844
H           0.28121784177711   -1.68925477931481    3.30640546590948
O          -0.90312814150610    0.08311915118174   -2.51751314375715
H          -0.51794849346792   -0.19137268111397   -3.35240580071430
H          -0.15306029344561    0.48654916501570   -1.99534498835091
O           0.63523632914817   -2.78682669433152   -0.51761051970068
H           1.05898880658543   -1.94507966844251   -0.22226844829796
H           0.60060920546262   -3.33601703385752    0.27119515345568
O          -1.97323953674413   -0.77669215141229    1.15309786427377
H          -1.43807325250061    0.05249658891721    1.02199158754559
H          -1.40947683813755   -1.32655325825535    1.74255777908422
O          -1.67002457697468   -1.84797410854899   -1.05180131718316
H          -0.77341149692737   -2.32432610147189   -0.89697244638217
H          -1.90637034251552   -1.38442058738235   -0.07904863181256
H          -1.45431863827323   -1.06920944632637   -1.68481374135838
N           0.67918349594805    3.63357915306530   -0.18768961896097
H           0.48210152719860    4.62525315405567   -0.24113334069347
H          -0.13350843700668    3.15102689796209    0.18304735234658
H           0.82596922714949    3.27513518473748   -1.12408827889407
