    26
        -50.46407681  Gyration_radius:  2.36395211801 Dipole_moment: 3.032
 S           1.37372277895930    0.02491836062766    0.26609765381300
O           0.78814663222953    0.28945868305815   -1.05767676701335
O           0.38581908932984    0.29104157682188    1.31358306804029
O           1.87019413648203   -1.33477780590432    0.33764288445198
O           2.55208144141018    1.00508629038806    0.45260722010018
H           2.08136406374474    1.89245771995767    0.45325417450103
O           0.04047092457235   -2.43667479271167    1.82662559266544
H           0.84345564622907   -2.15170116133325    1.32246285640019
H          -0.14811812620409   -1.68412191940523    2.39753446891752
O          -2.04497462676668    0.12557166908297    0.40282655802917
H          -1.17133566090803    0.25656233114016    0.85051957952596
H          -2.02034201081257    0.74920368238312   -0.35123255301695
O          -1.27350403896765    1.80012817098033   -1.57488180631916
H          -1.50031881590989    1.68386384739105   -2.49887041775308
H          -0.43984690065977    1.29241545491982   -1.43304137481283
O           0.22195073167704   -2.11897419309077   -1.81640772206069
H           0.45760343805807   -1.16700750502467   -1.67515822652123
H           0.97720486430238   -2.59658194506380   -1.45743920968810
O          -1.61342121198594   -2.28118337976699   -0.08150192455831
H          -1.01835162082819   -2.47189262907296    0.74942093532474
H          -1.91798799567055   -1.26919428986865    0.06043055092168
H          -0.94464470989697   -2.28277370939709   -0.87552605815050
N           0.86610372368448    2.98905408979557    0.54728863021638
H           0.32620718861484    3.09383424237942   -0.30369868165359
H           0.97863233938689    3.90202169030252    0.96924245675029
H           0.32988870993167    2.39926551140597    1.17589810186959
