    26
        -50.46460227  Gyration_radius:  2.41133129947 Dipole_moment: 2.666
 S           1.09254060669972    0.67709353186222    0.54516127445397
O           1.46832663900759    1.00406206668131   -0.83676963427212
O          -0.33634882696687    0.95076501437037    0.74524553926249
O           1.41987920138099   -0.69324363924028    0.88499206132753
O           1.88823972319780    1.60475814073630    1.49150272296866
H           1.60778023162696    2.51167662078436    1.17850891961731
O          -1.76759029656837   -2.47690457252646    0.19820862229692
H          -1.48263313911909   -2.02869113333137    1.04419076146414
H          -2.42572834296838   -3.12841928897115    0.44258901844026
O           0.74492975364634   -2.53070278726706   -0.88712906114843
H          -0.14901191997351   -2.73713811878441   -0.55436125511809
H           1.15844922696159   -1.97921833192510   -0.18458769302894
O           0.32108327164665   -0.57318777804724   -2.38898710016313
H           0.88884924338865    0.12305831204712   -1.85829831682818
H           0.55389604997790   -1.48476468231513   -1.90903172301187
O          -0.86923425133923   -1.15639567187398    2.27327979541152
H          -0.86094446259526   -0.26798264440008    1.86510631399982
H           0.06706876432972   -1.39273415593265    2.28235016901030
O          -1.81929791354697   -0.11158098227712   -1.16487644978201
H          -0.65140568911103   -0.36479079057858   -2.05039435554922
H          -2.02334755373180   -0.97753762646047   -0.76319552023452
H          -1.38437951338071    0.40464050245568   -0.44679858369999
N           0.79919035526356    3.58453158235925    0.22061514633445
H           1.06084806679532    3.12413588302971   -0.64459627456280
H           0.86015069376321    4.58745148786420    0.09918891089786
H          -0.16130990838987    3.33111907176405    0.41808670189824
