    26
        -50.46460256  Gyration_radius:  2.41090466839 Dipole_moment: 2.668
 S           1.38873062988768    0.14846485397351    0.04779207588451
O           0.36055914002279    1.19294164855900    0.14318269692965
O           1.35017600886393   -0.69289665461542    1.25106091972622
O           1.23624502985218   -0.63235212889466   -1.16362159529915
O           2.76700603010851    0.84611279416312   -0.00609969757096
H           2.78198140746334    1.34388823651747    0.86052370254013
O          -0.69540175295958   -2.43303269033165   -1.15817791425114
H          -1.41699085383140   -1.87812075793765   -1.51018553045884
H           0.12286905538582   -1.90206698959410   -1.28888009092714
O          -0.39605815047530    1.14966439812097   -2.40365870651378
H           0.30434238675831    0.51570802691698   -2.60427160305099
H          -0.17760376102117    1.42659140731396   -1.49186519427247
O          -2.41660316302778   -0.40761697853926   -1.81271769808688
H          -3.14753650190208   -0.29700919365516   -2.42172296479491
H          -1.69779571659362    0.21711984474963   -2.11398396699725
O          -0.79844471550015   -1.95518295799440    1.29710563442931
H          -0.79775422985502   -2.32930760742570    0.30938365519002
H           0.14775964648579   -1.52387789111350    1.38523216456772
O          -1.99219293273848    0.19821215346970    0.81594851671394
H          -1.41805132871611   -1.10936231428110    1.23330066075278
H          -1.16450375254247    0.70619408757903    0.64835404568456
H          -2.37094442718681    0.03656974515626   -0.06898898560104
N           2.18455667949685    1.83570265145886    2.31768369472914
H           1.93117698479600    0.90194108353411    2.62197970236628
H           1.33344302036922    2.29497193818019    2.01655483359597
H           2.58103526687949    2.34674329464326    3.09607166471653
