    26
        -50.46342152  Gyration_radius:  2.49375525085 Dipole_moment: 5.600
 S          -0.75782916336910    1.90147813726351    0.25131286149175
O          -0.75969673383484    1.74204007560600   -1.18520300179256
O          -1.62286616608182    0.95479436553648    0.93174337984496
O           0.58455261227161    1.89940264802704    0.83008678428655
O          -1.33561665506501    3.34858644587338    0.53197157974289
H          -2.00759243074015    3.41395690060534   -0.13812688027916
O          -1.96272515675044   -2.60576518390301   -0.49186800838493
H          -1.51887263309268   -3.45113991870590   -0.57718095176069
H          -1.72186818931197   -2.24301832310771    0.37828267515982
O          -1.13550820421631   -1.38810493190959    1.85062140003823
H          -1.36606982802394   -0.49004789023656    1.47716981076204
H          -1.68912832046257   -1.48900581154804    2.62677880703230
O           2.03626190734724   -0.99212497878858   -1.07579517134897
H           1.73190820483428   -0.83315987603972    0.34215735971887
H           2.28848611340342   -0.07168728846000   -1.31689628109317
O           2.03832294305991    1.65844812229862   -1.43279821122044
H           1.64489693378489    1.89837912582225   -0.57550481545224
H           1.30737874109011    1.74686654353929   -2.05350291061330
O          -0.42716683741630   -0.83743776062368   -1.94064342193697
H          -1.11075570650098   -1.39689169170116   -1.53186283118333
H          -0.65423683312917    0.08640256618353   -1.73224720883054
H           1.13979406580860   -1.09108674777787   -1.49257873352223
N           1.41714344070299   -0.53536583056306    1.36447892212655
H           1.12686561979990    0.47514217701628    1.27117190355885
H           2.17391239991065   -0.63404737552416    2.03178481298793
H           0.58040985597095   -1.06661349889110    1.65664815066163
