    26
        -50.46850037  Gyration_radius:  2.45646956671 Dipole_moment: 4.946
 S          -0.69868616914722   -1.39304197802563   -1.28797149761130
O          -0.55477809145872   -2.77371702321001   -0.90574985533769
O          -1.70886642911543   -0.68877535912315   -0.48490852796486
O           0.53358314580417   -0.63910679425856   -1.34834131696355
O          -1.27680452219871   -1.40215764082898   -2.77254402060059
H          -1.73547546692429   -2.23467793984261   -2.82500339163326
O           1.39874996812737   -0.41936033441912    2.28291848794059
H           0.02288257334496    0.08392108649431    2.04394455968220
H           1.46218610880395   -1.30749600539082    1.86305927814026
O           1.57112348007686   -2.53377265572912    0.67279277200308
H           0.76382500751239   -2.74430502300486    0.16447793734196
H           2.19511520570422   -2.20325198741579    0.02173735015001
O          -0.27504205891332    2.77805920953438    0.30504194643523
H          -0.47704568024866    3.71306967118353    0.26034335307543
H          -0.59268540179532    2.37793831465269   -0.55045251144771
O          -1.09603281013707    1.50458880701418   -1.83893664780787
H          -0.31780169242649    1.09152939681131   -2.23057756376036
H          -1.54839542484447    0.75493484971492   -1.40753182142964
O           2.01415312671692    1.07119598679169    0.17376965160936
H           1.42322573533873    1.83438856077555    0.21557963312055
H           1.86557216114508    0.17295840492996    1.64838219027361
H           1.59471685661518    0.44970660734559   -0.44711312702109
N          -0.92855588831777    0.52462140482542    1.71717513606690
H          -0.73870564015289    1.48550399327402    1.37755545155192
H          -1.61555365587239    0.52656145589493    2.46258036499224
H          -1.28070443761934   -0.02931499798956    0.88977218920343
