    26
        -50.46850059  Gyration_radius:  2.45639758239 Dipole_moment: 4.952
 S           0.25379843145013    1.01684711828000    1.72868646205839
O           1.38848811374956    0.66130531914194    2.54049602771912
O           0.64031884011221    1.72377327143248    0.49896552721174
O          -0.65958130260568   -0.06605158374234    1.43939363281171
O          -0.58212951453826    2.07688588750697    2.57473570219693
H           0.07318800773476    2.47408438440694    3.13957857154874
O          -1.92725263087472    1.76333571606934   -0.15337999808245
H          -2.15536159432958    1.14755882087828    0.55263141034324
H          -0.99800315734093    1.98792385452358    0.04350425894795
O           1.41998608376302   -2.13322004253258   -0.88139504743550
H           1.33646899163121   -0.73235924451225   -1.36474609556058
H           1.70287273837617   -2.10133002383794    0.06099752178499
O          -1.55289427784249    0.32419917961444   -2.31678826835233
H          -2.14297256527931    0.58790179174840   -3.02338901508009
H          -1.77698054642825    0.89577994622686   -1.53188241877335
O           1.66888461164211   -1.86368368769221    1.75635623037499
H           1.70381559805130   -0.94430877116584    2.08497735045190
H           0.81584337336004   -2.19801777027317    2.04446137638510
O          -1.19863132695839   -1.87619961021790   -0.52676360829547
H          -1.49913099841922   -1.29098257507732   -1.23429109974295
H           0.45185602911607   -2.31021955671124   -0.82874209579699
H          -1.08459184023315   -1.30539374440316    0.25355232120701
N           1.10662377248031    0.29878419609352   -1.66511288717663
H           1.82213945941387    0.67958180518690   -2.27389337641018
H           1.01444940321034    0.88330781560263   -0.79037746716933
H           0.17879630078109    0.30049751346749   -2.12757498516276
