    26
        -50.46193161  Gyration_radius:  2.40647909068 Dipole_moment: 2.033
 S           0.78061077493034    1.09931074663029   -0.30757696697977
O          -0.51807749246677    0.65338296947379   -0.85878394742624
O           0.74534092595232    1.01389112647195    1.14595010505039
O           1.86940510029510    0.34497595059383   -0.89120161011502
O           0.95631717969112    2.57806777818789   -0.72212342069497
H           0.22617574092573    3.03628811527311   -0.21336582255675
O          -1.14104670108018   -2.46811267116670    0.62595684213239
H          -0.21518937267603   -2.34640912949543    0.95678089996202
H          -1.62756235503418   -1.68364501892786    0.98668720587313
O           1.75692112206884   -1.99575068665260   -1.97162718695654
H           2.16785962729406   -1.96807051806572   -2.83725414095020
H           1.89522897542464   -1.09778024631853   -1.57073766012199
O          -1.85347167465829   -0.02330531011624    1.33900982057309
H          -1.15669117068649    0.18153244469508    1.97153832059438
H          -1.50666685978790    0.31685544544137    0.48833372886872
O           1.26758288539944   -1.59838136818485    1.24140170568976
H           1.16078301299334   -0.62779379463818    1.30667391148301
H           1.97749270763394   -1.74268184174444    0.61155779623549
O          -0.77477013300479   -1.71449066654272   -1.69106494616819
H           0.18703301069363   -1.97013788957697   -1.88903964161367
H          -1.00714462514004   -2.15909230958627   -0.68187102383912
H          -0.72730380126340   -0.71353667207325   -1.47247792646475
N          -0.96223615305762    3.26629447953966    0.89915033993796
H          -1.86607005912635    2.91544547204565    0.60925850866668
H          -1.09955508257044    4.12620055784847    1.41401747607243
H          -0.53496555259388    2.57694303695247    1.51080763252211
