    26
        -50.46850029  Gyration_radius:  2.45647887894 Dipole_moment: 4.948
 S          -0.72857927837772    1.87121935410155   -0.23621145001651
O          -2.04036314686837    2.13718660500749    0.29442668290313
O           0.28102565212243    1.69731671174381    0.81819352444774
O          -0.66157753316621    0.79635652110716   -1.20101621263627
O          -0.29204220632528    3.18788545930691   -1.01970983923368
H          -0.78899949290342    3.87531024591948   -0.58761273800984
O           2.04213314637126    1.21112571673351   -1.10010113689629
H           1.35220272708986    1.14435601838663   -1.77027278866390
H           1.56024213583803    1.55170938455897   -0.32255541113324
O          -1.29473810780581   -2.15901180730638    1.00240846448631
H          -2.05001331025198   -1.54566044310143    0.85228942061148
H          -0.16681735381049   -1.35005084986282    1.52818659628508
O           2.51163331665651   -1.22980966971732   -0.25557441120161
H           2.41342426800544   -0.30906714014500   -0.62370958015991
H           3.42627642662884   -1.48048078954366   -0.38830067828419
O          -3.03472418413937   -0.32523087852714    0.16484816456207
H          -2.97503678114085   -0.45323884953147   -0.78511956778726
H          -2.77106373663281    0.60397351589831    0.31150877865846
O          -0.06141740756609   -1.85991806636394   -1.32960230413718
H          -0.93446518227332   -2.31146828181841    0.09779791238614
H          -0.32917620334181   -0.92703966940368   -1.40561669671653
H           0.88204393443809   -1.84281392721496   -1.12238017565211
N           0.71191899419143   -0.72836723196600    1.74653899620016
H           1.49290278482265   -1.05239948762695    1.14672234061949
H           0.96181842913965   -0.76523143288390    2.72827246961488
H           0.49339211926983    0.26334901224662    1.45658961976774
