    26
        -50.46193189  Gyration_radius:  2.40665116462 Dipole_moment: 2.046
 S           0.14429816746887    0.64920793851735    1.21046801305386
O           0.85076835778838   -0.61800380055479    1.33869373099682
O           0.27885765986630    1.14985974620714   -0.17533247791720
O          -1.25011089714729    0.55894462315546    1.58803634795736
O           0.81461102000038    1.69615872873789    2.12930447527343
H           1.77832519999177    1.63343645938289    1.86614913440986
O          -1.11893575915288   -2.08895063205005    0.30801756803004
H          -0.38280524011477   -1.64522406814694    0.77583884546147
H          -1.92389465678922   -1.76315961393917    0.71718458135725
O           1.68266350443302   -0.78863787410277   -1.33426591702404
H           1.76095124262146   -1.35879194723048   -0.56201849988450
H           1.28467207073565    0.03353923280922   -0.98049549996176
O          -0.69326013475779   -1.52721886220658   -2.22946888389244
H           0.27759039908723   -1.35241061463941   -2.13342830764268
H          -0.95018067942200   -1.92691807696690   -1.36005214847726
O          -3.29304513859545    0.35298277262159    0.02440317418482
H          -2.56855676694926    0.42485989816140    0.69969148557025
H          -3.93856855610629    1.02395324391196    0.25257253260797
O          -1.57489396483943    0.73965728815513   -1.83721329667206
H          -1.22817322223653   -0.29179737565019   -2.13271479443840
H          -2.37294819256204    0.59702942105422   -1.22696684569650
H          -0.82587705162080    1.03804522891420   -1.20352045530034
N           3.15097586014137    1.03548485610004    1.18699369626036
H           4.05833945887964    1.04881013742854    1.63407372487200
H           3.26696221561631    1.28521422533588    0.21322474541165
H           2.77223510368047    0.09392905512939    1.23082507112290
