    26
        -50.46516747  Gyration_radius:  2.53921164161 Dipole_moment: 5.798
 S           0.02726314135387   -0.07067862902175    0.61475356042825
O          -0.91052083571575   -0.23098182760320    1.69578938030225
O          -0.08557269422198   -1.11457462554385   -0.39971342016567
O          -0.23284283645848    1.29109981623661   -0.10467958672291
O           1.42335304005152    0.05409055977879    1.06431104420025
O          -2.89766956397061    1.45786584137839    2.21465270532410
H          -2.58257532811726    2.11210960770226    2.83937912076208
H          -2.18535791386555    0.78906718773741    2.13775173725945
O           2.94755916775265   -2.02661619533236    0.26103710813264
H           2.43013805830494   -1.30953077719345    0.67849105073186
H           2.61788273423600   -2.84334340078967    0.63890687540062
O          -2.74084227585938   -1.25634665687660   -0.27847998565050
H          -2.86477135129350   -1.35310981258558    0.66981841637226
H          -1.77892790065937   -1.34726974156153   -0.41837488791795
O          -2.71859733700803    1.39640819498576   -0.47258021076718
H          -2.90800544404338    0.43467180800437   -0.57899583427181
H          -3.00997186514618    1.60450337758540    0.43758059639940
H          -1.24646097273065    1.37371669611941   -0.29600947501726
O           1.91575107094351   -1.24233280026615   -2.09273629532870
H           2.20841812814980    0.16657490835722   -1.69492900015913
H           2.49780920366428   -1.72785475328517   -1.47290055522641
H           1.03642414862461   -1.30304135653364   -1.65140289845031
N           2.28103406896293    1.10043125724454   -1.11579625310999
H           1.54185026247062    1.74618304152882   -1.38872780531713
H           3.19973657019398    1.52874411177854   -1.16781664626931
H           2.03489673437487    0.77021417815104   -0.11932875093895
