    26
        -50.45674968  Gyration_radius:  2.5011554275 Dipole_moment: 1.717
 S          -0.27191259249418    0.46743808380085    1.18727986317211
O           1.14727945167926    0.43911453466546    0.88412609139527
O          -0.96186467982009    1.54540018224058    0.49522933871654
O          -0.89699499326339   -0.82938259720997    0.89017610505417
O          -0.45010242802425    0.66848320682945    2.71896526434944
H          -0.01006353940655    1.54499965466654    2.85174663540178
O          -1.60933858237406    1.25439181952422   -1.99842944495019
H          -1.29476486210049    1.45034364186542   -1.07671357709709
H          -2.42352330332663    1.74885087833923   -2.11010143007866
O           0.57250360816990   -3.00776522008811    0.52578303766601
H           0.13372531242573   -2.17089331451470    0.79258173035575
H           0.08260401378500   -3.71202726799526    0.95320631853427
O           1.87301790905108   -0.22352213779576   -1.54246890554754
H           1.58258728667015    0.06182162703502   -0.64240880738493
H           2.81106595069320   -0.40620522762545   -1.46346184365076
O           0.37292456102231   -2.30509829140805   -2.01228354155943
H           0.98065558767413   -1.51403572536761   -1.98359089214373
H           0.53116020403602   -2.75756609279923   -1.14652258238060
O          -1.76852627020125   -1.23355196016765   -1.45802243452517
H          -0.81970845257310   -1.76191540021775   -1.82035360943101
H          -1.55898899658632   -1.10055703146272   -0.47197748389059
H          -1.74769670778290   -0.28645761691433   -1.83224545168050
N           0.82054096907979    2.89824727180483    2.27070455166977
H           1.23486847729422    3.75316500442385    2.62120847367741
H           0.13473050932739    3.12910810719264    1.56012164230356
H           1.53582156704171    2.34761388117994    1.80745091202354
