    26
        -50.46455198  Gyration_radius:  2.42055425634 Dipole_moment: 4.946
 S          -0.86528292025519    0.98984836464540   -0.16192004043022
O           0.10217239192900    1.75327138365799    0.61017026583369
O          -0.17728899620006    0.18228233082119   -1.17916051230172
O          -1.70510463126523    0.14300325366120    0.67825243518853
O          -1.81422444635355    1.96099095941914   -0.90205100078662
H          -1.17628556850415    2.56389534821409   -1.37986090947492
O           1.85957486372783   -1.17845898439463   -0.30569755790143
H           2.47181497823771   -1.31709104156738   -1.02954201696764
H           1.11540550420876   -0.63256825023378   -0.67278899412951
O           1.52527569889487    0.12479639286490    2.09494972523600
H           1.96963369185853   -0.35309105381612    1.37571784381642
H           1.06248376011137    0.87376527847566    1.64888838560405
O          -1.66816740216302   -2.03353305452146   -1.07853848480280
H          -1.13543223564574   -1.24061478327992   -1.28880653671071
H          -2.40664227323267   -1.69341856963882   -0.56516401963143
O           0.07177508838724   -2.99032645629719    0.66330698987055
H           0.86895870756864   -2.55266848739580    0.30836836891596
H          -0.62939845439561   -2.82688008231082   -0.01932850571240
O          -0.53408241129384   -1.28716519164342    2.38314018782986
H           0.35435143242861   -0.73589568712617    2.44074636179409
H          -1.12759176312713   -0.69202070028717    1.79251584427366
H          -0.30113311937131   -2.11617191271794    1.74435463813275
N           0.27657145820167    3.22231021145097   -1.79738758467700
H           0.74573271920493    2.67635774614364   -2.50772006335692
H           0.65120310891419    2.95704235458012   -0.89028217580128
H           0.46568081813513    4.20234066129679   -1.96216266381024
