    26
        -50.45793260  Gyration_radius:  2.46064420605 Dipole_moment: 5.066
 S           0.91267859305310    0.44474522623563   -0.02038083260833
O          -0.47544994898827    0.67103478839151    0.44866609669769
O           1.85406919631483    0.57828734060870    1.06072744381565
O           1.00490085303348   -0.79591196203606   -0.76370761959738
O           1.16289844335044    1.58038048586988   -1.07627698930318
H           1.22091868400227    2.40777034815647   -0.51157998247320
O           1.67720006133468   -2.09400646181212    1.58852215883768
H           1.65824149992920   -2.26077206494282    0.63943972915981
H           1.93535663960229   -1.16081301028528    1.65540385355099
O          -2.30720957786735   -2.42300044227447   -0.23553727979348
H          -1.74863210380749   -2.23681031196236    0.58157957108264
H          -3.18027364212926   -2.65638233576450    0.08586079864260
O          -0.95955076204234   -1.62773001841680    1.82355651754012
H          -0.04827219176265   -1.98489981689182    1.89545848680831
H          -0.83792025185998   -0.70689959326341    1.53808857166142
O          -0.21149572255373   -0.19861532513121   -2.96853367022358
H           0.13756093754951    0.68094883079716   -3.13724661116397
H           0.36975593819068   -0.56823858624726   -2.25863228443217
O          -2.08319313380990   -0.13509108101078   -1.25864609133733
H          -1.45434566464794   -0.18829221186246   -2.07372915095140
H          -2.23369315266315   -1.11744909603126   -0.91913861066448
H          -1.46151348956608    0.28087537123251   -0.50962222352955
N           1.25542483538909    3.32473263247395    0.84381998588805
H           1.86126405486893    4.11912820815410    1.00473679371899
H           1.61512089347224    2.52522299009445    1.36070557830062
H           0.33615901160454    3.54178608593969    1.20646577037260
