    26
        -50.45793258  Gyration_radius:  2.46064695651 Dipole_moment: 5.059
 S           0.47076931236300   -0.89278998368201    0.10707365613343
O           0.56414465338417    0.38234680257494   -0.64353074705450
O           1.69169272719089   -1.16633587579204    0.81945376895769
O          -0.73079465702097   -0.92219042346405    0.91672803101281
O           0.25300233896178   -1.98708168738125   -0.99856218061203
H           1.14536133151814   -2.03032818787209   -1.45535649813611
O           0.73020310441108    0.11375335476949    3.03009523788543
H          -0.13302099960338   -0.28081856409483    2.86273173604764
H           1.32608684996532   -0.36947024344894    2.43555593659636
O           0.39114775631392    2.20267429950207    1.37285733125457
H           0.53462477245042    1.61993750491994    2.14941797543260
H           0.65588377600114    1.66155800387103    0.61044428566972
O          -2.07623220525919    2.54538301368629    0.67790287857580
H          -2.18394727342270    3.48461117738607    0.51585454251591
H          -1.15513817083091    2.43270747015227    1.06936333585126
O          -2.57992091182998   -1.21708273085564   -0.86966659100760
H          -2.01874968452405   -1.21644846433780   -0.05505675331903
H          -2.17436415927736   -1.87138519770882   -1.44526541981013
O          -1.69734842390164    1.11050272253822   -1.35396320209830
H          -1.95705042663991    1.72186392493663   -0.54035232880892
H          -0.69807207536166    0.83813146458509   -1.13509724101601
H          -2.20609632780904    0.22122370003392   -1.24031286968935
N           2.72004574277068   -1.69596583425978   -1.75162044659864
H           2.84416879023313   -1.46885070754220   -0.76735203689099
H           2.85782445840790   -0.84820620671064   -2.28640491102830
H           3.42577971148333   -2.36773935176423   -2.02493749991090
