    26
        -50.46342146  Gyration_radius:  2.49440125943 Dipole_moment: 5.648
 S          -1.92863456889708   -0.20161415725116   -0.70617094938628
O          -1.94694945113739    1.08086028931236   -0.04006625392775
O          -1.04671040250093   -0.23371078493837   -1.87132039408885
O          -1.65022397138648   -1.30667823055825    0.19360182325245
O          -3.38828728367041   -0.42227389597370   -1.27781866715796
H          -3.92088420163495   -0.08839368864406   -0.56386614790083
O           0.58742354562252   -2.33638656593818    0.90164238372244
H          -0.29938067275543   -1.93745438427041    0.66919739810816
H           0.41515176257688   -3.26808365662921    1.04769667104277
O          -0.21391324067873    2.33572099545111   -1.85995556616613
H          -0.55021041307915    1.44552974027885   -2.06392961007538
H          -0.79438251124831    2.64489039301227   -1.15649004673078
O           1.90673384316011    1.57817890388873   -0.41677870698558
H           1.74627714066244    0.19492255016276   -0.84927523177431
H           1.31041100351570    2.04139284579831   -1.04831903995327
O           0.79756702485747   -0.70101494034969    3.12182770676205
H           0.74717079300085   -1.34706444452526    2.39589156643935
H           1.72344486659032   -0.60652709780109    3.35126485584152
O           0.19864102855281    1.48737920726355    1.56118856605263
H           0.26634958898427    0.76861399250098    2.21395945364245
H           1.39602876611752    1.61327592822197    0.43495410129798
H          -0.64250616925081    1.36083032012230    1.08674843322912
N           1.42972744873545   -0.80864511686402   -1.20461174491105
H           1.36536197610073   -1.47113331121054   -0.41427695339041
H           2.04160370491096   -1.15637863713610   -1.93427069319016
H           0.45019038282900   -0.66623626356376   -1.57082296374261
