    26
        -50.47291484  Gyration_radius:  2.43844634179 Dipole_moment: 3.486
 S          -0.73777208148502    0.66047887058151    0.93198994496542
O          -1.05743159002169   -0.44511384715670    0.01220545164144
O           0.18688161851855    1.59032047797162    0.25708160517043
O          -2.04501167287235    1.42613370663314    1.22005019847389
O          -0.19118793735820    0.18079721259921    2.17311597816671
H           1.31121540213597   -0.66466641303280    2.31686744168302
O          -0.00461786509849   -2.72820919601430    0.92627062565329
H          -0.45974909607073   -1.89720272489200    0.67122594541924
H          -0.54058046056599   -3.11465689168564    1.62034843980309
O          -0.86059641216141    2.66836086934671   -1.91313305702334
H          -0.39753920086145    2.30290742672280   -1.12716379931072
H          -0.93069795567508    3.61325564273045   -1.76749232201253
O           0.70819727270771   -1.54992746573593   -1.68371153787848
H           0.71416210909188   -2.43524944154203   -1.30604566396088
H          -0.04928564989015   -1.10493603338299   -1.25258644025680
O           2.01799442717953   -1.26130025172380    1.99062466430741
H           1.51338324518234   -2.03498021543905    1.67398513555477
H           2.33971873542030   -0.48410302769115    0.67816064831820
O          -2.91905042111360    1.12344694491477   -1.17020195292508
H          -2.45948932380685    0.27327881824018   -1.12381320575461
H          -2.53078850632211    1.41140422097158    0.34314368235467
H          -2.31200396524824    1.72294925241190   -1.65530419053079
N           2.24529634366848    0.06218746155346   -0.24285716586087
H           1.50725253551257    0.80136809131410   -0.06193204171954
H           1.83099195999450   -0.58826178663789   -0.96165997301621
H           3.12070848910593    0.47171830891408   -0.54916844128219
