    26
        -50.45296542  Gyration_radius:  2.61641246653 Dipole_moment: 2.350
 S          -0.02227026072738    1.19477330879385    0.50247042723823
O          -0.33304028786587    0.68407825500735    1.81883021026527
O           1.36380264627723    0.96288354825380    0.11692309629944
O          -0.93803424599625    0.65872768632559   -0.51839093336017
O          -0.26542660661021    2.73452820613498    0.48836140653507
H           0.36176384999621    3.03445483620396    1.19029996505800
O          -0.66439277528652   -1.93566911411256    2.05812889791390
H          -0.46800203807879   -0.97547087709636    1.99056486166948
H          -1.07189525336994   -2.05822381009155    2.91739146753968
O          -1.39555839751930   -2.51729398417156   -2.31852397751705
H          -2.16425311701881   -2.63067710410786   -2.88057427549556
H          -1.75245091086806   -2.29647948464054   -1.39717104286709
O           2.20144617256702   -0.56723561399703   -1.77514983236387
H           2.89707211233558   -0.06553942376071   -2.20467996023354
H           1.94827940655990   -0.04655614089866   -0.96368583780673
O          -2.28134756841899   -1.65065894966053   -0.06768835493598
H          -1.99908033212322   -0.72381323615839   -0.16919198154349
H          -1.75765346773803   -1.96957619122005    0.69700549314707
O          -0.15691447975020   -0.35850832100288   -2.65243099377928
H          -0.64148532556729   -1.29168788818305   -2.59207741181002
H          -0.50673024932148    0.15837986538470   -1.81190997702722
H           0.83641532244965   -0.52044914127249   -2.42074837837269
N           1.55003625928381    2.72342490061546    2.36323969084528
H           2.11937783179229    3.22104784164746    3.03692472474989
H           2.15562300407144    2.19909529413078    1.74112050057940
H           0.98471869091562    2.03644552787377    2.85096220529667
