    26
        -50.45296536  Gyration_radius:  2.61684734143 Dipole_moment: 2.355
 S           1.03712448163300    0.32533785693015    0.70605398233332
O           0.17676555901716    1.50126093267929    0.72446263623841
O           0.69607593903072   -0.63753434313894    1.72926537529135
O           1.04665179541524   -0.28595362176813   -0.63350836200577
O           2.50153202809850    0.80774947032595    0.93542562260150
H           2.43598966369256    1.19644236307562    1.84137971908391
O          -1.50679333652738    2.20556807904887   -1.08956679582600
H          -1.39288061326163    3.15423041442225   -1.17308476093670
H          -0.95453172479460    1.93044787265735   -0.30660488079509
O          -0.32962731304970   -2.57191499415009   -1.10425306700688
H          -0.88726531043658   -2.56703032993046   -0.29815373128000
H           0.34528861927282   -1.89376487261386   -0.92101786489816
O          -1.44705289039705   -1.39986068242770   -3.09925886311712
H          -1.15596032323560   -1.87126554232701   -3.88197718756895
H          -1.10933963047788   -1.93419859320510   -2.30848154905556
O          -1.43369895518400   -2.16017562512789    1.30933278490945
H          -0.69032555499185   -1.54828078570871    1.50459480628764
H          -1.36841749891741   -2.86399791068990    1.95732342436546
O          -0.15149867072314    0.68930358529790   -2.58587419921788
H           0.44243981576539    0.32181570176836   -1.80579304986198
H          -0.73352006190869   -0.14107807496881   -2.87009716221737
H          -0.78259702086332    1.34587788031004   -2.09884201264984
N           1.54964253376392    1.60209078607581    3.23173475539172
H           1.20134395170641    0.65833442615122    3.36386446324581
H           0.82148799761837    2.10399040751313    2.73536958905413
H           1.68916652978490    2.03260560979481    4.13770633764985
