    26
        -50.47050263  Gyration_radius:  2.38421556687 Dipole_moment: 5.662
 S           0.12177850565141    1.50818677773587    0.36551810988448
O           0.76976246824924    0.32566760450765    0.99213979854786
O          -0.12883283145879    1.20192571397361   -1.04485516621908
O          -1.05361249771393    1.90730861176611    1.07723309398032
O           1.15755825778333    2.66151448250272    0.42004255147966
H           1.98185226757219    2.24690967506435    0.08225422326533
O           3.02173567123689    0.95323696182223   -0.30427333025630
H           2.80616957666452    0.52860190287840   -1.14942911630905
H           2.50029125356110    0.47970624340012    0.36203745969583
O          -0.82818119199132   -1.07274160234830    2.64032007340073
H          -0.21651451310893   -0.49005816106508    2.15069421917347
H          -0.91192385852436   -0.69058434126580    3.51542538233856
O          -2.04811445821997   -0.67267058770961   -1.26571566162974
H          -0.85373797717462   -1.45380711496576   -0.84382330168423
H          -1.57200487434344    0.16636145289606   -1.40672096535455
O           1.55705149386789   -0.29461472855928   -2.32300928949960
H           0.90562244956758    0.32871063137515   -1.90369236781823
H           1.53686856839913   -0.10533326379831   -3.26205043641231
O          -2.89458384458517   -0.06324658122938    1.12600499435369
H          -2.56174142388248   -0.51936373701152   -0.42657761069045
H          -2.37463883030738   -0.62113723373623    1.73006386792672
H          -2.43667380030547    0.79736985510099    1.14438978240650
N           0.14637240898410   -1.75853020459026   -0.49954094102784
H           0.15567817279764   -2.67642685682845   -0.06846235368261
H           0.42779814042010   -1.00826653232471    0.18881332490444
H           0.79202085685985   -1.67871896758858   -1.29678635077376
