    26
        -50.46583679  Gyration_radius:  2.48724990366 Dipole_moment: 6.447
 S           0.68405596229214    1.26039868775635    1.39152974341203
O          -0.25908949670175    0.22611387549473    1.84056937522864
O           2.04856221498425    0.91813730789619    1.72570997418384
O           0.46741642850669    1.61361446271058    0.01146247415280
O           0.33645867618471    2.55295349590073    2.24928574972326
H           0.87002373684207    2.44129417703392    3.02905584385025
O           2.98615375294621   -0.75960726754643   -0.04594324566444
H           2.64078158316128   -0.06088237749796    0.55828126822091
H           3.64861470393837   -1.23118234899429    0.46246977712567
O           1.10476787088009   -1.93963379649595   -1.46143946229613
H           1.54852893360987   -2.48299857662056   -2.11393369319023
H           1.81512688268445   -1.47825354709425   -0.95070766970336
O          -2.61230337728401   -0.10504747514115   -1.22098329839715
H          -2.68631219341599    0.63762988648248   -0.58013517253801
H          -1.82131169229046   -1.07772513319712   -0.42330187305030
O          -2.17865452821373    1.74079547646463    0.68062251891186
H          -1.49961692184508    2.26757291055106    0.24358834226534
H          -1.67274637157262    1.20073237704815    1.30799179437635
O          -0.25277120180875    0.42704434513140   -2.31381871938576
H          -1.88867388645234    0.16575642968042   -1.83529338703646
H           0.06242111326090    0.99110019731382   -1.58601591884988
H           0.26021895164653   -0.38840378281724   -2.23289942825510
N          -1.08395523295144   -1.63193852260251    0.17618859015721
H          -0.30513968934639   -1.91436713889725   -0.43927841828051
H          -1.49723168680483   -2.43297497520495    0.63965386254165
H          -0.71532451224111   -0.94012868733334    0.88734097249915
