    26
        -50.45260468  Gyration_radius:  2.47829100899 Dipole_moment: 2.187
 S          -0.21788716375457    1.72657914444823    0.53631768562061
O           1.21375741952952    1.67305845277021    0.35165697143086
O          -0.94752839011378    1.30615052616361   -0.65461884660747
O          -0.68586534569766    1.03984789669361    1.72844610838328
O          -0.58908908374340    3.24890822945421    0.76422723185571
H          -0.14044569474603    3.68678984400118    0.04872613887227
O           1.11503017253400   -1.03174826737027    0.56215904207048
H           1.23545094607075   -0.07759038423003    0.68450381985548
H           0.85173180140164   -1.13474621248472   -0.37978905639946
O           0.26824408672478   -0.73687279467928   -1.95567931810145
H           1.14465749538454   -0.43392214512495   -2.26687834940431
H          -0.16364126320482    0.08257942453730   -1.65582792369214
O          -2.47398658546415   -0.84098339407253   -0.81948901463960
H          -2.08206276761477    0.05916343002099   -0.86489492201334
H          -1.84948592763771   -1.40245567892978   -1.29348068864350
O          -0.35548221346296   -2.44718365050496    2.16425462401384
H           0.27656125437112   -1.97589791434459    1.54978531293917
H           0.00288202358494   -2.33806041156535    3.04716086534015
O          -2.26258326366240   -0.88139901622279    1.69533803715448
H          -1.56490013650746   -1.62106460935599    1.93661283845419
H          -1.69421490060496   -0.00970143262043    1.76073279328099
H          -2.45825966586211   -0.97182522308021    0.68020649918411
N           2.64970716184110    0.60970706714409   -2.02465587806053
H           3.44554008706631    0.06414390244056   -1.71640117728150
H           2.28950683955316    1.09796073659071   -1.20616040334517
H           2.99236311401447    1.30856249038196   -2.67225239029867
