    26
        -50.46186236  Gyration_radius:  2.40673048424 Dipole_moment: 3.155
 S           0.14868635735175    1.76904967303709    0.25582487597043
O           0.54431379360197    1.35581181541853    1.59136946420165
O           1.19136851185629    1.49074407669121   -0.72006070129004
O          -1.13350459469421    1.22390322633442   -0.15058104524810
O          -0.03669456831604    3.33498286459174    0.32035006151057
H           0.65673073379542    3.57930731855926    0.92297807382365
O           2.29686262150331   -0.52679596094894    0.51384648860185
H           2.33848550145064   -0.17739310222231    1.40936036368045
H           1.96880631832973    0.23027351143958   -0.02657067297234
O          -3.00833278302353   -0.05149211888008    1.27283751403178
H          -2.45902782221971    0.57415216752602    0.76276385944467
H          -3.38811195465974   -0.65448882368209    0.63026357395437
O          -0.98935440672736   -1.15114758567153   -1.30539910129397
H          -0.29889391273719   -1.01924766524663   -2.01430313204252
H          -1.14502464596017   -0.24618394362194   -0.95614755221763
O           0.28369476899739   -2.10876121781387    0.60470658613419
H          -0.29763505940259   -1.79470833878294   -0.24210089407571
H           1.16731729095412   -1.60659350429473    0.52520585385217
O          -0.73584596631038   -0.78739512302801    2.45429758676431
H          -1.67111540617300   -0.60540336843136    2.20851588434396
H          -0.18539546319180   -1.65532359295078    1.45115451424480
H          -0.26191218623452    0.05790784303204    2.28290010088244
N           1.03654548125487   -0.45255714356433   -2.86214580671016
H           1.19345810563713    0.37046142458843   -2.28116977358947
H           0.90379435768378   -0.13866392104031   -3.81484659001859
H           1.88078492723625   -1.01043850104037   -2.83304952198634
