    26
        -50.46186235  Gyration_radius:  2.40669712891 Dipole_moment: 3.152
 S           0.93116099203827   -1.47042976568684   -0.43348086540268
O          -0.27979874603200   -1.60418398231896   -1.22882397567468
O           1.84325003091289   -0.49767382261204   -1.01040607996000
O           0.63606920684553   -1.21279872295100    0.96398743167224
O           1.68530698214479   -2.85605132797906   -0.47823012133267
H           2.16145853816589   -2.78190161440423   -1.29776519166992
O           1.78029398133516    0.47643512833139    2.69729013405351
H           1.04916761399785    0.72058779589506    3.26876305439578
H           1.46851495984746   -0.28545705823383    2.17224263343730
O          -1.40569485641224    0.42041775546603    1.36265242169918
H          -2.13048919266216    0.02067609104243    0.80448231462976
H          -0.68471225603728   -0.24591476233991    1.32578692932748
O          -0.41458208482270    2.17040404798551   -0.10074733532844
H          -0.47491791057785    1.72185334278858   -1.01421246920058
H          -0.89626972683062    1.49310875623946    0.57958794639955
O          -0.28952574658817    0.79479841737687   -2.25852788405790
H           0.63476178106819    0.87511860563678   -2.51349425477845
H          -0.37355555763897   -0.13560722427415   -1.94214979335703
O           1.99612033890160    1.75084598072722    0.36693570243940
H           2.06821576646871    1.44025789544274    1.29785267834074
H           2.09141375800913    0.93667113931242   -0.17767461427739
H           0.62602971532180    2.11405928492221    0.13638857924168
N          -2.94157511944655   -0.80303688430556   -0.41498681456288
H          -3.61855833203624   -1.50751338288661   -0.15193713499591
H          -2.12191959600423   -1.28132551841041   -0.78769437679781
H          -3.34016453997089   -0.25334018476542   -1.16583889423925
