    26
        -50.46186236  Gyration_radius:  2.40677768895 Dipole_moment: 3.155
 S          -1.09818044309371   -1.41799452254568   -0.02218070623377
O          -1.11652489432805   -1.19330479817595    1.41315167836726
O          -1.86065200378422   -0.40188243715914   -0.73150285043773
O           0.24329748121241   -1.56097313486609   -0.55729410171612
O          -1.81801712448574   -2.80281031170789   -0.25640996052410
H          -2.49225314644181   -2.77704202481705    0.41328281295093
O           2.58994799305922   -1.86657392570771    0.69495577786474
H           1.75605258079881   -1.95920187520708    0.19560557608566
H           3.20396125420196   -1.42482219899853    0.10454825514756
O           1.38600425594672    0.72112796515471   -1.25126886558524
H           0.70027722918740    1.15241745120039   -1.83475955163018
H           1.02849003033587   -0.18017014325854   -1.09313478056479
O           0.98078486205794    1.71681618141509    0.99160221685119
H           1.23628192038668    1.35600118745775    0.01268510608352
H          -0.03536302210289    1.79900577702320    0.99095083395966
O          -1.57409240116827    1.52710569740928    1.00395655576701
H          -1.75784818231345    0.86806487016664    0.29350569475461
H          -1.75212132250074    1.05026964191993    1.82046767735972
O           1.19158173449650   -0.34351044417693    2.37625108471661
H           0.31672772488026   -0.73584365985146    2.15441233700179
H           1.84862790606720   -0.93007772002245    1.93752624549668
H           1.16396405134717    0.89543153548006    1.65023064833072
N          -0.76979260743700    1.60819731490062   -2.50878576417525
H          -1.15360948704411    2.50353780596480   -2.23334810110961
H          -1.32653457404653    0.88412383019475   -2.05572536871768
H          -0.89100979523445    1.51210794820747   -3.50872248004127
