    26
        -50.45406473  Gyration_radius:  2.45687638446 Dipole_moment: 2.142
 S           0.37773790607240   -1.33600769854777   -0.17350084211781
O           1.14310823892711   -0.10291033104443   -0.04675714699509
O          -1.03434111939293   -1.11158235146703    0.12840486253452
O           0.53356488209324   -1.89918662225567   -1.52633310445511
O           0.93711742958401   -2.38401155788923    0.79119295079671
H           0.94065557295001   -1.95238879291623    1.71012576616225
O           1.96210490856496    1.15652873871696   -2.16172726557005
H           1.72927649539434    0.76504739154160   -1.27976464498542
H           2.83490694975953    0.82350434238532   -2.37922390069220
O          -1.37537154419779    0.01154126621831    2.55615146486395
H          -1.47672934988691   -0.47096768873874    1.71688028396585
H          -1.09064339297190    0.90812791851476    2.26808270361224
O          -1.86412757348244    0.66993218032669   -1.54455228262482
H          -1.59177925212178    0.03846029143330   -0.82462266690199
H          -2.77926883465279    0.46284865923865   -1.74558866372094
O           0.78984801990997   -1.30245981948203    3.08909913019686
H           0.57200855601994   -1.96937256455462    3.74398001071610
H          -0.03214661529789   -0.73024701108576    2.98833191074430
O          -0.01411061844998   -0.12425241093562   -3.11212128469424
H          -0.81109837725455    0.28394283434351   -2.62044895844630
H           0.78080079957458    0.48955697690075   -2.90735748026210
H           0.22425214987493   -1.00812660780621   -2.47993150978851
N          -0.33695724013799    2.09262956962397    1.16458360068774
H           0.30743679350620    1.40450163935609    0.77826360735265
H           0.20893369390959    2.89121269893860    1.46224512845937
H          -0.93517846828324    2.39367897920114    0.40458831114173
