    26
        -50.45593709  Gyration_radius:  2.49625356591 Dipole_moment: 3.356
 S          -0.13751928633671    1.32534297942027    0.43256042467610
O           0.29231482541272    0.75762343798564    1.69588261012203
O           0.72782136190450    0.86038649330549   -0.66098344125638
O          -1.53807746764414    1.03866771170442    0.14070789783487
O          -0.01244709754189    2.86994959086548    0.49337580312422
H           0.92390303248357    2.99666837482847    0.80285201141938
O           1.60660382687173   -1.61812627997328   -0.46833017922237
H           1.36983711707962   -0.66149816136884   -0.48222489542027
H           2.49518955715336   -1.67474796924374   -0.11569268356746
O          -0.43482210989431   -1.79340029845179    1.34258511006158
H           0.30409117095585   -1.99096388246437    0.74032535086481
H          -0.28904224950368   -0.86620397295611    1.61522253507724
O          -0.08295046388604   -0.67128416146688   -2.65066179809614
H           0.37996652485397   -1.46364203825601   -2.35425778421318
H           0.26712797438458    0.04751990778542   -2.07542850814200
O          -2.60378447924758   -2.33516227635067    0.02690319816330
H          -3.33653260311798   -2.18694906452295    0.62754526669237
H          -1.77228986876209   -2.17761370401350    0.56567573856381
O          -2.38806611214672   -0.45754492530977   -1.63389523616644
H          -2.09425939716877    0.26882149861798   -0.93390989207323
H          -1.52213297806185   -0.61933748847049   -2.17519040195368
H          -2.54252574931386   -1.29336342862505   -1.02764492611518
N           2.41659828812631    2.56851647852417    1.41693631636497
H           1.97415620301698    1.74620985119399    1.82124093895908
H           2.91868013203170    3.06410556472156    2.14179812407235
H           3.07815984832796    2.26602577253558    0.71460841022905
