    26
        -50.45296539  Gyration_radius:  2.61638895874 Dipole_moment: 2.351
 S           0.89179453873080    0.52548826378550    0.78249412616323
O           1.94293472615950    0.26649162620483   -0.17583783840194
O           0.02806822917452    1.63216060935962    0.39164182561736
O           0.09306668263591   -0.68175703280481    1.05209419623906
O           1.53775664055297    0.89140555956885    2.15312657626112
H           2.06197787325491    1.69309133596907    1.91097764912160
O           0.04943008020547   -2.72089027837046   -0.73128480941490
H           0.21790550011084   -2.12269118054036    0.01894261867471
H           0.42741277174089   -2.24168851680887   -1.49825849634438
O           1.27177367285862   -1.00887426665890   -2.40117520504902
H           2.10341111883285   -1.28037252826683   -2.79378902469855
H           1.51126311897174   -0.47045716891037   -1.61506480355686
O          -2.51701516790673   -2.62570398404523   -0.66486696992867
H          -2.80430770285370   -3.45851615587307   -0.28607549658636
H          -1.51804744720232   -2.71192185224914   -0.80614081394086
O          -2.45408014535082    1.48438252811099   -0.27178748712930
H          -1.47304084082245    1.59169517231811   -0.13133365419855
H          -2.86600403961531    2.23861127290689    0.15431365626019
O          -2.39493723861251   -0.71762905004502    0.96265988031936
H          -2.53705542220734   -1.51025785073827    0.28334204982486
H          -1.35838822025654   -0.69671450764917    1.10765371204943
H          -2.56779261327614    0.15799433362192    0.44337034520718
N           2.58705809019067    2.84879358726186    0.78293083554187
H           3.18136349891425    3.66750021186114    0.73576656135416
H           1.65567479067994    3.09710681458096    0.46727235061859
H           2.92977751497325    2.15275302723479    0.12902821598027
