    26
        -50.45068693  Gyration_radius:  2.48301084488 Dipole_moment: 1.676
 S          -1.55167290319460    1.26681342576212    0.02331934675893
O          -1.23048327850789    0.67339176739243    1.32274243572584
O          -0.50920175622777    2.17160595969582   -0.41517041516891
O          -1.91120894827407    0.26352265813359   -0.95274928834548
O          -2.83777556589662    2.15716305802514    0.25492801482911
H          -2.45101503590445    2.93081422886060    0.64980392921686
O          -1.75175467450830   -2.40689473574483   -0.88546983319129
H          -2.28779564428496   -2.69177782471673   -0.14383521715406
H          -1.91207874015810   -1.44620163255569   -0.98317672056163
O           0.85028652099438   -1.98532459602729   -0.58764900549824
H           0.91445641797986   -1.20235832309645   -1.19262220712739
H          -0.02787356761870   -2.37603374241757   -0.79956720332586
O           2.16514671121744    0.23326116863861    2.57912660097196
H           1.84085808202833    0.85182507551814    3.23616661873456
H           2.20371295085147    0.73160554648440    1.72292120912336
O           1.91919213622896    1.36977174895594    0.22908370446249
H           2.12176203853384    0.77428959509550   -0.49673086047234
H           1.02816962020762    1.73845534536596    0.03407148101727
O           0.29078152702057   -1.25831003422836    1.72203893378951
H           0.59718633229960   -1.59381319732280    0.74277724889223
H           1.08881781198504   -0.77430831567239    2.14575113691840
H          -0.40395472916790   -0.50518336471600    1.56294910010355
N           0.61904192417410    0.10305542372703   -2.26519142178595
H          -0.31558977061616    0.29923071075162   -1.90444628706301
H           0.49827699879503   -0.32986893683570   -3.17427263092438
H           1.05271554202787    1.00526901087363   -2.42479867993433
