    26
        -50.45198920  Gyration_radius:  2.60470873147 Dipole_moment: 2.746
 S          -0.45401239064097   -0.31476062964899   -0.45054014795314
O          -0.64463144863708   -0.36795234112339   -1.94170928322091
O          -1.82845470574250    0.12228972122779    0.06957557248394
O          -0.13797320307098   -1.61957060794438    0.08533042675137
O           0.53119624424180    0.69050950082897   -0.10898031176736
O           1.53448699274244   -3.10083003385541   -1.35734210356772
H           0.97484430246615   -2.61798818574185   -0.71398143200517
H           1.07926375987275   -3.92286915424556   -1.54865946298055
O           2.71793661946826    0.76371708545075   -1.62502792017894
H           1.99813246019163    0.77855731122210   -0.96109658382499
H           2.82485404497247    1.66684999051933   -1.92892191999856
O           0.08986180536776    1.06883639231823    2.56764755741347
H           0.47253568129033    0.98000547970106    1.68004397281164
H          -0.55967340745773    1.79899006098886    2.48046847394610
O           1.44605471931955   -1.06745732860622   -3.01445515041673
H           1.61803580322070   -1.91395853575300   -2.52578083821453
H           0.28484849174882   -0.68276653051917   -2.49808271347090
H           2.07645973890139   -0.40458004774446   -2.63107169702707
O          -1.55890084287430   -0.92308932893226    2.31808508266055
H          -1.00431287647964   -1.63515191316073    1.97503415462381
H          -0.92614539212778   -0.21576394333677    2.63866300613881
H          -1.87623677274080   -0.30471743760935    1.02053651666929
N          -1.95026135656454    2.72062677386514    1.76227614803749
H          -2.12055133268134    2.11201729502111    0.96821918165869
H          -1.79771512207533    3.65775161321517    1.41182185301507
H          -2.78964179271617    2.73130480386314    2.32794763841799
