    26
        -50.45617973  Gyration_radius:  2.61995942612 Dipole_moment: 6.923
 S           0.28344541356868    0.28264394396787    1.02081521317360
O           0.42218092989457    0.58491537028011   -0.50606107367670
O          -1.14482315741401    0.38770890678905    1.33456143590871
O           0.81837993818064   -1.01853630346877    1.30522600961025
O           1.03147743905645    1.38353200894156    1.64871342982443
H           0.69131897294344    2.47284599258785    0.86514513430669
O          -2.19588833331861   -1.87774420919381    0.41510479824560
H          -1.78161922035667   -1.12834496478131    0.88914309527955
H          -3.13051459255626   -1.67106339987263    0.35357089991152
O           1.39821799389025   -2.90322353458307   -2.15266200295066
H           1.92639532743343   -2.69608855434927   -1.34575697123728
H           1.91571536837452   -2.58633332577009   -2.89438388395200
O          -2.20537642390384    2.70991162080240    0.92673551453874
H          -2.53634572996175    2.99103889559427    1.78165465667025
H          -1.89099875721581    1.77347099807968    1.06005768837800
O           2.77331171498203   -2.21414758916497    0.02836836669515
H           2.97648273038732   -2.95552771390176    0.60195676571144
H           2.07806657954864   -1.70551149534605    0.50464519429159
O          -0.69017672377793   -1.29485973100482   -1.72704571001914
H           0.01384138997310   -1.96213620022143   -1.90818015165432
H          -1.26013741766592   -1.67937801420827   -1.02645036031693
H          -0.02896462460997   -0.18872686168176   -1.03981321291581
N           0.25268140206642    3.20656716498814    0.12425284791546
H          -0.77333907182218    3.23037149799878    0.37567665181452
H           0.36465737685089    2.73823652471773   -0.77436524001115
H           0.69201147545854    4.12037899282094    0.13909089452717
