    26
        -50.46933020  Gyration_radius:  2.44158232819 Dipole_moment: 6.747
 S           1.02806296548545    0.48925684417156    1.54097061915507
O           2.29324226014724    0.72963320765841    0.87083676470101
O           0.00633584951722    1.41836291066871    1.05321136233968
O           0.59187633008259   -0.88528118403595    1.48820528676316
O           1.24861110609866    0.83425638279343    3.06254128656912
H           1.66261341712607    1.68742318395497    2.99963976928729
O           2.31796371542036    0.08080070302503   -1.63430473135938
H           2.37603935908071    0.28481637888018   -0.66375987689641
H           3.22070347013938    0.04541877242950   -1.95376473342297
O           0.28445206261294   -1.80934364428208   -1.02236933101925
H           1.05313248155418   -1.41316929409341   -1.45179280497787
H           0.38550154202951   -1.59070167450612   -0.07764739425720
O          -1.78392738950759   -0.30881643635586   -1.81022610692377
H          -0.81614323036710    0.78290978351926   -1.80271673300700
H          -1.16919928179543   -1.05219803117021   -1.61957623497941
O          -1.82698005980370   -1.98689667137239    1.93978963262764
H          -0.91711872297317   -1.63820129088566    1.94773505317757
H          -1.80510082266483   -2.76273354267328    1.37571075702768
O          -2.48667257369940    0.31068186131062    0.64313147428454
H          -2.23680309992592   -0.12125417426711   -0.94533689876934
H          -2.47430365374971   -0.51063047801458    1.17152497401829
H          -1.68710592987337    0.79289808206610    0.90938499958539
N          -0.00538242359272    1.51222367823053   -1.58573793539675
H          -0.16492367744037    2.40820136795056   -2.03147659730162
H           0.89777250997614    1.09754966295421   -1.86760752157162
H           0.00735378612164    1.60479359204376   -0.53636505965214
