    26
        -50.46933038  Gyration_radius:  2.44160462049 Dipole_moment: 6.752
 S           1.14697203752198    1.43333904607180    0.54809785168749
O           0.55732946335265    1.47789073586811   -0.79177947219302
O           0.25490729073618    2.04667630523590    1.51537258050493
O           1.58114716657533    0.10666715641706    0.91406056215363
O           2.44030725588804    2.33171213239924    0.49193040920180
H           2.05911920656062    3.19681651134510    0.39479252436479
O           2.70324718787728   -1.85171899326588   -0.56022454513932
H           2.40571013921169   -2.64309998448765   -0.10667360890778
H           2.46843758584497   -1.10691081234416    0.02254106490252
O          -0.45277388725441   -1.62693417370603    1.24466779928431
H          -1.09203329173519   -1.06441320116292    1.69981992801278
H           0.35410585577751   -1.08393156880975    1.17676199527480
O          -1.34236807855836   -1.77004501952553   -1.27298946349065
H          -1.02823846575811   -1.97696951778949   -0.36449217901079
H          -1.81237759765490   -0.40908794126459   -1.03736164219608
O          -1.90776400596152    0.70291074247659    1.97878236078050
H          -2.33277118887423    1.03159108911138    2.77227767608945
H          -1.06564787752278    1.22093778205844    1.88158430490662
O           0.88123640094571   -0.81411618871393   -2.29213620658666
H           1.62696882542903   -1.27772310362156   -1.86456337713810
H          -0.51844412272195   -1.56283278783690   -1.78918699614818
H           0.86542090213295    0.06665337634008   -1.88376083464787
N          -1.95177498000432    0.65577435563614   -0.74952328555326
H          -2.22523176126536    0.69706552221002    0.24580164493485
H          -2.62056911040939    1.13046304251060   -1.34476355975791
H          -0.99491497013572    1.08928549485156   -0.82903554133818
