    26
        -50.46933010  Gyration_radius:  2.44144848553 Dipole_moment: 6.747
 S           1.32610055754870    0.64469546253637    1.22371231435149
O           2.49553745027688    0.40523383882370    0.39745731155638
O           0.43444746762239    1.61189338829926    0.57995679435895
O           0.63667218202773   -0.55897450678767    1.62173202138659
O           1.83863105347010    1.32934539182694    2.54713566478828
H           2.38918641515251    2.01977955862070    2.19584991774605
O           2.01244362533482   -0.88722591460831   -1.79193310674720
H           2.25649132195478   -0.44607599371448   -0.93586509263654
H           2.83230678082191   -1.20966481637794   -2.16879629261566
O          -0.22176395300540   -2.03435266206130   -0.46091792264081
H           0.53232948389078   -1.95210393716226   -1.05825041951434
H           0.06276110235923   -1.59677739073829    0.36253467267460
O          -2.06643677022533   -0.37781873236338   -1.46274089085599
H          -1.58090981538563   -1.16033385224114   -1.11812329540918
H          -0.92108790872411    0.42892123234048   -1.86930409100150
O          -1.84791088117767   -0.92750998258481    2.60123898926343
H          -0.89841907925509   -0.80243196485098    2.42144839769335
H          -2.05866849695162   -1.81087417637375    2.29170479207849
O          -2.25516309327298    1.02284036285685    0.75066299403595
H          -2.33776833343578    0.13307098747874   -0.65422982300102
H          -2.31614523794989    0.39332855548985    1.49494823770541
H          -1.34803408500223    1.36715684648760    0.78632914810608
N           0.03610071364774    0.98836319256705   -1.95491718530604
H           0.22687628981306    1.35606348897754   -0.98624798260729
H          -0.01831270681627    1.74237239591956   -2.62978109149916
H           0.79073592727947    0.32107923764123   -2.18360406190985
