    26
        -50.46814358  Gyration_radius:  2.48721202361 Dipole_moment: 4.355
 S          -1.38114780346118    0.08188184817223    0.11359104677631
O          -2.05835945028999   -0.31228646089340    1.43387520396058
O          -0.73053608419049   -1.10567532220248   -0.45522868736289
O          -2.38065805064269    0.62221105912016   -0.77198070576916
O          -0.33998169807232    1.08491852365578    0.43601025632577
O           1.05564324661667   -2.28864244781103    1.03922115120156
H           0.80975965722860   -3.21123951678271    1.12625438846829
H           0.34616520415101   -1.86760806768926    0.49471132489637
O           1.59531893369671   -1.27065523152672   -1.74614942406484
H           0.66830321411640   -1.35360635566404   -1.43698589571716
H           2.12102796099459   -1.60687851619638   -1.01319294627843
O           0.71450272292944    1.65721632845080    2.80678795039899
H           0.13259380638465    2.29144854398073    3.22880404693445
H           0.37088349132672    1.53503340744804    1.89741146005996
O          -1.34397067823020    1.06429671517167   -3.10924659361942
H          -1.50217604439130    0.25088952098829   -3.59252596718546
H          -1.84848634646369    0.96803354720673   -2.25967793377945
H           0.11906635137879    1.29147349636553   -2.47363685762222
O          -0.14513799130874   -0.88517170283039    3.02166627338750
H           0.28584605210036   -0.01266953870091    3.13611525257996
H          -1.33228661108977   -0.56711847508416    2.09873815667286
H           0.45971676870727   -1.41238515487710    2.46341288990341
N           0.93245528765617    1.29185068353916   -1.79611963503610
H           1.42298748816805    0.36457145544774   -1.87338312286717
H           0.47544823519900    1.30978965779644   -0.82682477645420
H           1.55302232748704    2.08032200291471   -1.94164686580537
