    26
        -50.45760670  Gyration_radius:  2.49467039212 Dipole_moment: 2.729
 S           0.78878450805076    0.85348548634919    0.82157629536840
O           1.80444869954265    0.23540731403764   -0.00854763966549
O          -0.24073407171078    1.49759997469434   -0.01271435281344
O           0.17854124415951   -0.09358743354244    1.74695475571373
O           1.44045137368326    1.96435033906241    1.68253516973563
H           1.84076169259830    2.54521925848467    0.98035991661894
O           0.13021831672012   -2.69652916960989    1.23432189176471
H           0.26242669377628   -1.75430045354426    1.47871622084244
H           0.81275864791888   -3.18912517309192    1.69201981469558
O           0.63989428897680   -1.78101358886974   -1.29321916653223
H           1.14254163593273   -1.02212277571072   -0.92930125999182
H           0.45260547383546   -2.34183316135704   -0.51966322728532
O          -1.65429482499180   -1.10500420856289   -2.26581191403984
H          -1.48309766357143   -0.65240928793406   -3.09304730626953
H          -0.75981120949908   -1.41752710332820   -1.92707021690630
O          -2.27582679620875   -1.07082143753222    1.68301613593547
H          -1.44436389933829   -0.62462323320337    1.95290183986072
H          -2.00739986391092   -1.97292618798573    1.47155329729976
O          -2.41759269997567    0.39256573391873   -0.38383751907781
H          -2.19046995769007   -0.22317029749112   -1.18862282300539
H          -2.50993610971241   -0.21724636805817    0.44318693135394
H          -1.51866470208355    0.93463069866618   -0.20921922867320
N           2.24485601013362    2.96977037751598   -0.57673848925453
H           2.98469738704511    3.53952788947653   -0.96705717101387
H           1.36618704652215    3.23480952026749   -1.00352521793661
H           2.41301876980221    1.99487328736741   -0.80876674672432
