    26
        -50.45618386  Gyration_radius:  2.41742316518 Dipole_moment: 5.398
 S           0.89201752083593   -0.48854265158468   -1.54228390814794
O          -0.53437716407874   -0.40502187062537   -1.82987543491145
O           1.41145269957475    0.81223989662529   -1.11970089651145
O           1.22245549551479   -1.55378366764899   -0.63196736484550
O           1.61814968027163   -0.80139834519354   -2.90951564778886
H           1.58652823428501    0.04599367131362   -3.33912700650310
O          -0.20891528417707   -2.70300310932856    1.61249332758106
H           0.25919491589657   -2.90229357673653    0.79355489374348
H          -0.93719129034584   -2.12417322145955    1.33735445322745
O           1.91447021243679   -1.10969867168245    1.89631380931905
H           1.15944930661426   -1.66613597517754    2.18499532438988
H           1.98545200253223   -1.33531020242685    0.94706548045887
O          -1.25296245088323    1.43685945146248    1.41861359842684
H          -1.58111292561138    0.53690306775475    1.23035452373947
H          -1.34369418215443    1.91596027612630    0.54709080301799
O          -1.91204380277371   -0.95041688373434    0.32085146422489
H          -1.39028664860323   -0.80194090599979   -0.50647954780145
H          -2.79463073294397   -1.19848640182409    0.04036056680415
O           1.23024095958309    1.23692757314436    1.36552351304075
H           1.52902189839468    0.29665797823156    1.73256238368204
H           1.36529433730077    1.15358685154635    0.35527838144271
H           0.17304764616866    1.34331488490813    1.49441282349243
N          -1.16977627825956    2.30152720676653   -1.08377800648763
H          -0.98923080644812    1.37878764667571   -1.47989183212875
H          -0.32419535181508    2.84324623706374   -1.21375637715690
H          -1.90835798130795    2.73820073180555   -1.62044933431007
