    26
        -50.45618378  Gyration_radius:  2.4173588376 Dipole_moment: 5.403
 S           1.47880754583964    0.79977854319044    0.76547307477866
O           1.08657045308031    1.60420747388611   -0.39189314081792
O           0.40477989810281    0.75479248311894    1.74970814853849
O           1.97136499976173   -0.50495948043783    0.40805408698119
O           2.67719514735928    1.58471793887623    1.43023333783417
H           2.36754930187803    2.48203798548518    1.37976957089880
O           0.65865625761441   -3.07842334973432    0.18250075305233
H          -0.11922855301478   -2.62241775109257    0.54013202027573
H           1.40760139755562   -2.60667929234918    0.56460998579759
O           1.43334968612077   -1.64532949408754   -1.93304800817315
H           1.01994850029931   -2.39587995487604   -1.45478368578149
H           1.92806691000270   -1.19420021778122   -1.21997108041354
O          -2.20362255136207   -0.08911811276384   -0.88535752409225
H          -2.22183528071895    0.80382514748088   -0.43844235879618
H          -1.94347493096249   -0.70543481304463   -0.17438527182093
O          -1.14227684258920   -1.29960353366765    1.29358731096325
H          -0.52267941837571   -0.55661668635094    1.50045865006543
H          -1.61975174667514   -1.48415825650882    2.10418842095307
O          -0.11764022826142    0.30031892801328   -2.19153781271124
H           0.47064415567137   -0.57231812815315   -2.20888955747022
H          -1.05254479150131    0.08264948371597   -1.71821563625036
H           0.37536741207559    0.90902796771152   -1.53404090756469
N          -1.72455103862590    2.16435005698967    0.42165233328057
H          -0.97912139433029    1.76663562459429    0.99357848948885
H          -2.34808841480535    2.68166615340953    1.02810974127779
H          -1.28508648414704    2.82113126438144   -0.21149093029302
