    26
        -50.46516737  Gyration_radius:  2.5392844109 Dipole_moment: 5.793
 S           0.01135546978612   -0.61190606026170   -0.09712741458147
O          -0.39857029566119   -0.89928126924161   -1.48133648610042
O          -1.21680180452816    0.16257341830118    0.47890522228941
O           0.24588114486088   -1.79580114318579    0.68853555145124
O           1.13986850485082    0.31459997926658   -0.08603317888221
O          -1.09745886056029   -2.41011010076837    2.89922784724935
H          -1.84729781276332   -2.95427279662540    2.65580597468964
H          -0.56322366697497   -2.30166250365093    2.08468902729241
O           1.43564204596881   -0.07888981331768   -3.28665217722894
H           0.79001175349971   -0.50021674358244   -2.68506640218782
H           2.26190624700994   -0.54631835990334   -3.15494446160280
O           1.74469487099424   -0.10113339622881    2.47237689985701
H           1.67313783401034    0.13498800183009    1.52771970858424
H           1.78090409640602   -1.06160609277420    2.48696361332693
O           1.05453359897267    2.19834325331538   -1.91209295401802
H          -0.41289034364518    1.92994159910165   -1.97072584234544
H           1.23387729106504    1.66325231657703   -1.10403655324199
H           1.37263611532394    1.61262958028570   -2.62933965601606
O          -0.84249143792561    0.27104770247645    2.96354665415719
H           0.14325074957238    0.29197426847168    2.97888972331957
H          -1.09937072566811    0.25061671330540    1.50333665547971
H          -1.07170702933735   -0.64903924765338    3.20312617195028
N          -1.39084177529015    1.42601241111177   -1.91970036889105
H          -1.86609928137500    1.65999793889975   -1.04946396114840
H          -1.10856612459756    0.38891381627052   -1.83462203799740
H          -1.97238056399736    1.60534651799073   -2.73198154541337
