    26
        -50.46933059  Gyration_radius:  2.44174717252 Dipole_moment: 6.743
 S           0.53041087589808   -0.10657821322718   -1.83611237354835
O          -0.77764941774373    0.08146562321941   -2.43724489078654
O           0.91277632297073    1.07638172804604   -1.06216843150563
O           0.65210687661695   -1.32552502766734   -1.07317542657307
O           1.56180139287838   -0.21205503569254   -3.02264192978134
H           1.30796368252892    0.53392067384837   -3.55395925611575
O          -1.11723752173740   -1.50490153296133    0.94906694007814
H          -0.45260713379120   -1.55843844314554    0.23780924219006
H          -1.90652082587867   -1.14674196929497    0.52356349026110
O           2.48471319771883   -2.07837715460086    0.75446554652033
H           1.98519524917295   -2.68122087421700    1.30906549428014
H           1.92196772233428   -1.90225110854631   -0.02131174760993
O          -0.22475320583385    0.47680377865602    2.50649558244341
H          -0.54883453809708   -0.38369776655456    2.15794043502062
H          -0.75456222155394    1.34908875113974    1.46411533799992
O          -2.73545551158418    0.10720319665826   -0.74458869683915
H          -2.02521783634446    0.04034859883302   -1.43590125400465
H          -3.56827829042687    0.00424037925902   -1.20738645821191
O           2.13436824328154    0.55131086376021    1.35451902859592
H           2.45372835062187   -0.36742421348464    1.26708839290863
H           1.85505725955427    0.80631626611194    0.46025269536439
H           0.73800870652282    0.50778061542599    2.26095625849160
N          -1.05645069461709    1.84946129577092    0.51810664662852
H          -1.20899015342484    2.84374661232238    0.64084737315246
H          -1.89450636184397    1.37473250976626    0.14476742649271
H          -0.26703414712174    1.66441046660473   -0.15456942546157
