    26
        -50.45332609  Gyration_radius:  2.55270010995 Dipole_moment: 4.730
 S           0.35653239279395    0.10431217609597    1.14209775495238
O           1.13539915701828   -0.80363452223845    0.29234688087794
O          -0.10206973558680    1.25223231528621    0.35239553045288
O          -0.76234921331007   -0.58130709955699    1.75772377160681
O           1.27211489252254    0.62749911271094    2.26681255996047
H           2.16396066445169    0.71648645513530    1.81607913852603
O           3.32336319220056    0.67894680648546    0.73672812884200
H           3.10868516019026    1.48489749400725    0.20726910612867
H           2.84023418624053   -0.04560857194801    0.31018193516769
O          -0.17479669409560   -2.83125693197406   -0.52668051499586
H           0.37774877916125   -3.16684053076421   -1.23595205061656
H           0.33993430736747   -2.07289013980973   -0.11605527884913
O          -1.39873487737576    0.62411380575929   -1.74743944431475
H          -2.09157268226974    1.28759711940748   -1.78092435479200
H          -0.84051669506829    0.86099895485870   -0.94392227169813
O          -3.16862900255540   -1.03115206826149    1.06178392752738
H          -2.26646860613862   -0.75032695611943    1.39539699890291
H          -3.44375144270630   -1.74236313784183    1.64422479279137
O          -2.29451668972309   -1.66650654638125   -1.20265842236125
H          -1.94218173208309   -0.73695706845100   -1.51390285375749
H          -1.43828552730706   -2.21612045840776   -0.95853022243132
H          -2.75724751271533   -1.46330000353182   -0.28673683443427
N           2.15614071314008    2.71537648038265   -0.58754322857690
H           2.12758575739084    2.79905632573307   -1.59585639541436
H           2.20965155946091    3.64967499446902   -0.20212588799314
H           1.26976966901906    2.30707198495860   -0.28471279549476
