    26
        -50.46347791  Gyration_radius:  2.43812115036 Dipole_moment: 5.956
 S          -0.06931441789896    0.98646230089448    0.92809199409491
O          -1.14554940451849    0.01786212658209    0.86766777997015
O           1.23345906590297    0.36022045119384    0.66575773213572
O          -0.29015233687477    2.11590885977902    0.04046066857864
O          -0.00681465037905    1.55746804573686    2.38468700701500
H           0.33609950203486    0.82812925762093    2.93137247530362
O           1.35610296138259   -0.66400015897385    3.06515924039613
H           2.22592715517218   -0.60592253719910    3.46574648006050
H           1.46952200927037   -0.46727328749652    2.10968683663814
O          -0.52449575301258   -0.21538016300644   -3.08759549842489
H          -1.29906628164425    0.26786778755795   -2.71557028884044
H           0.57624671497419    0.55835764518358   -2.47598214061417
O          -2.25799365187287    1.07711256162310   -1.51585227264550
H          -2.60508951955197    0.42702301865708   -0.89752924586650
H          -1.66663929577649    1.62781369388235   -0.97382634041144
O          -0.53461698037596   -2.52213325419474    1.86951818034674
H          -0.97354330777111   -1.69511800622091    1.62512652692059
H           0.12147017082384   -2.26828647077733    2.52557309127672
O          -0.25562967582863   -1.77900128812607   -0.95634190458085
H          -0.46705371006040   -1.02669917081296   -2.54782014607766
H          -0.17951199233322   -2.57410819204977   -0.41923669142113
H          -0.59532042821008   -1.11046654039382   -0.33583417252449
N           1.26094301166441    1.14343894659855   -1.83564073402719
H           0.69274574148526    1.87749146529011   -1.36307828987662
H           2.05692980465936    1.52101655715710   -2.33839840323977
H           1.54134526867263    0.56221634152393   -1.01614189417943
