    26
        -50.45332610  Gyration_radius:  2.55266919444 Dipole_moment: 4.731
 S          -0.49647895560878    0.00650035736277   -1.09392148605255
O          -0.55748848090962    1.26345752328204   -0.33930244482995
O           0.76424378189852   -0.68535666146585   -0.80476792152570
O          -1.63322481426790   -0.84197042273978   -0.79580988327456
O          -0.53074799515283    0.33766286168189   -2.59928825807528
H          -0.00858455714213    1.19215051470584   -2.65976211662866
O           1.19361496765200   -1.08301290871510    1.67367700679293
H           1.58725304281457   -1.95834937371060    1.68773567494059
H           1.03998701070033   -0.87472807537148    0.70086477853766
O          -1.97167845748973    1.12986700582206    1.77758817980547
H          -1.49737227083077    1.17733619129106    0.89356563471384
H          -1.70994672394814    1.91951143259596    2.25608632841425
O           0.83231549532502    2.48057997610279   -2.28093134986978
H           1.72621809394168    2.08346581218268   -2.14242747746428
H           0.40026406057641    2.45119125584354   -1.41326634992412
O          -2.10876968435144   -2.61806627672658    0.96378814403416
H          -1.88360878220487   -2.01510453208477    0.19581765491284
H          -3.06426997706967   -2.70443273919508    0.94606553322035
O          -1.12204943705897   -1.06029237362846    2.66533785303448
H          -0.13302659743046   -1.05848107319399    2.33840868112516
H          -1.51117024168256   -0.13643412242481    2.36544574055962
H          -1.58719362760455   -1.76457832418906    2.04732715518479
N           2.94821327152459    0.92353985897798   -1.67937187472503
H           2.26006477549819    0.23910752428767   -1.35988882087768
H           3.58612180588463    1.09891582276916   -0.91331820961344
H           3.47731429693380    0.49752074656171   -2.42965216240090
