    26
        -50.46347784  Gyration_radius:  2.43813895595 Dipole_moment: 5.951
 S           0.39501169716076   -1.05457526818429    0.75722812561160
O          -0.81498214626848   -1.18224633169493   -0.03020335775021
O           1.42047602955451   -0.28020116105377    0.04511326474740
O           0.14231950698834   -0.49367052349283    2.07395748652475
O           0.98763799562016   -2.48674161829646    0.97864671842939
H           1.32764687176605   -2.76095420579067    0.10838668650937
O          -2.35470230493692    0.49134330153106    1.66362433157134
H          -2.62158104598075   -0.08533934853144    0.94137482034682
H          -1.53740398772556    0.08562053014883    2.00147894696670
O          -1.43611984634979    2.73814532128684    0.54404512217017
H          -1.96095667660481    2.05713352128040    1.02651175658389
H          -0.07802066500975    2.39470313433198    1.01622795839223
O          -0.43426207884898   -1.47936990856418   -2.78608096769045
H           0.42067183051294   -1.92001066995106   -2.77038635744643
H          -0.75917146834513   -1.53667532445792   -1.87642989133066
O           2.03914269333312   -2.29772283339173   -1.49462004142668
H           1.90462274093382   -1.40598442512281   -1.10601119135305
H           2.98225497885948   -2.39827555848428   -1.63913068220382
O          -0.85576256381062    1.11145266945801   -1.47497400675474
H          -0.86511666083638    0.30971351640323   -0.92323092086776
H          -1.37846329894275    2.39406806358716   -0.36761399545516
H          -0.77982553366167    0.77228735707483   -2.37257761036221
N           0.86210143373638    1.92173207933969    1.35282306337568
H           0.60760179503652    1.17270576540365    2.03039957910729
H           1.53303878031802    2.58376609884350    1.72763325219196
H           1.25384191347404    1.34909582836095    0.57380795016943
