    26
        -50.45374059  Gyration_radius:  2.50093553875 Dipole_moment: 2.181
 S          -0.39349284224606    1.61230801141555    0.75542026786678
O          -0.26606611841239    1.92689835099465   -0.65676774245605
O          -1.74508270509552    1.16976062517198    1.09368821355382
O           0.61844410288210    0.68884320756570    1.22045589329788
O          -0.17538640967102    2.95928352708438    1.54724858780994
H          -0.94321788775637    3.45110792844238    1.27739015767395
O          -1.65077301303064   -2.74258846086724    1.38884033521070
H          -2.12642930541040   -2.79738352984463    2.21926096670637
H          -0.71257602763803   -2.49416799327164    1.61789312040391
O           1.65960213101527   -0.87906120186720   -0.71067457730979
H           1.39964518140077   -0.29472038999262    0.02625576878027
H           2.14510982546209   -0.27557392390788   -1.30888354912112
O          -0.67920873312892   -0.41914009435645   -1.81086273740333
H          -0.58491874426149    0.53363265238608   -1.59455733628873
H           0.18300067053599   -0.81083342775413   -1.50763260515195
O           0.75914191775842   -1.90495866007588    1.94974944150649
H           0.69757894095142   -0.93282278266219    1.91305655266382
H           1.35533266831567   -2.14244180363752    1.23152313176111
O          -2.45221811820503   -0.88165178648081   -0.14520648204560
H          -1.73703675399086   -0.79460757731277   -0.94633466728407
H          -2.17327823606854   -1.67841974098158    0.44352732945377
H          -2.26659081350663   -0.02560549516507    0.40409118924194
N           2.31514915820226    1.41710135619930   -2.03345420541615
H           1.47008524818679    1.78766452331999   -1.60150996948452
H           2.21526888382786    1.52699176062490   -3.03517710212232
H           3.08791697987625    2.00038491497947   -1.73733995183837
