    26
        -50.45374059  Gyration_radius:  2.50093524358 Dipole_moment: 2.181
 S           0.38302048196734   -1.60556424396809    0.77491455805455
O           1.49931861061048   -1.39643211423116   -0.13041767687275
O           0.60954705839535   -0.97130508413597    2.07239622668501
O          -0.88923233397418   -1.23175345300659    0.19638240152340
O           0.31093941285952   -3.15469395784888    1.06457934337541
H           1.11953942613335   -3.28348815396260    1.54816349016136
O          -1.44943671398847    2.36961173301144    2.11183481376108
H          -1.84515914594927    2.23963340349126    2.97517369585878
H          -1.97389739741108    1.80970961867072    1.47478765372519
O          -0.71423799664146    0.59430232132622   -1.78008261047090
H          -0.85629809244058   -0.12734766982012   -1.13887824421208
H          -0.24197107057120    0.14813331209966   -2.51197518968411
O           1.47651181256491    1.22733869241246   -0.47938636677915
H           1.70776273163783    0.27519206271926   -0.42111199050528
H           0.64202066853353    1.22923464849403   -1.02012908289327
O          -2.68490233573878    0.76431560394857    0.46241591825668
H          -2.18103467027945   -0.06905353456247    0.50482074669584
H          -2.56601391776701    1.07973502251185   -0.43984278581103
O           0.93154859399044    1.50184676347237    1.92051381423130
H           0.82836439618549    0.48752198502287    2.09223872683632
H           1.20051039628413    1.52740526868022    0.87749252351656
H          -0.00574987340302    1.91600499297863    2.01638633227872
N           0.98092156390221   -1.13334252318944   -3.04243212703800
H           1.25785862388626   -1.39346642577824   -2.09709226318681
H           1.81619303993768   -0.83281181391715   -3.52977491473322
H           0.64387677126529   -1.97072645441530   -3.50097700277279
