    26
        -50.46411428  Gyration_radius:  2.39252721806 Dipole_moment: 2.409
 S           0.15731079315745    0.93462419123414    1.09449721329334
O           0.75032669360365   -0.41153475427195    0.99657064882336
O          -0.00113392907310    1.49800958514429   -0.25057707937841
O          -1.09002281430017    0.92025131454995    1.82453050635312
O           1.16033459518419    1.82004730050247    1.86768785844613
H           2.03613650259278    1.60553948484573    1.43332983775912
O          -1.01522169259355   -2.23184716562513    0.30307035039996
H          -1.86294223675773   -1.82436795252844    0.55942219993299
H          -0.32139533155884   -1.65602868892244    0.70575084066344
O           1.45910233880761   -0.26108609221201   -1.49166718845588
H           1.05224212053086    0.62489423236691   -1.42607947962150
H           1.41143130271118   -0.54095551365541   -0.54792097181011
O          -0.71199404384710   -1.46223560826296   -2.06152714529224
H          -0.85273664919004   -1.93694693742761   -1.12701321418715
H           0.23550980619996   -1.06086085331920   -1.99716135058255
O          -3.00939365075473   -0.44853523170331    0.79685067057817
H          -2.31395995979449    0.10395255418644    1.24942857887228
H          -3.79689920932411   -0.37905694567219    1.33818008661846
O          -2.07561074843655    0.56632119197809   -1.54450129598389
H          -1.35411922424393   -0.61680181071267   -1.98628946962521
H          -2.65672390167273    0.26433850635220   -0.82189679768249
H          -1.35840123631223    1.08057843656631   -1.09650214694913
N           3.34428714817369    0.99277317506322    0.65812528873660
H           3.34794309602622    0.04111185674903    1.00410537889806
H           4.23776794674819    1.41915223612246    0.86724561767820
H           3.22816225411680    0.95866350869062   -0.34765893747703
