    26
        -50.47229332  Gyration_radius:  2.41202114608 Dipole_moment: 3.394
 S          -0.37160644333575   -0.91414762740598   -1.43637062371764
O           0.18735072612570   -2.25146074156210   -1.33967899187606
O          -1.43151223972579   -0.70090933628818   -0.46427779982525
O           0.63640503760218    0.12376976580309   -1.40826844368589
O          -1.05051802698114   -0.81212360746191   -2.87108688050310
H          -1.49384327967487   -1.65042319054229   -2.94983005403278
O           2.29167872312223    0.44057689379101    0.67571807539951
H           1.87777006655060    0.49534056058398   -0.20521371855261
H           1.68406810351554    0.93438927021506    1.25864245418151
O           0.19535014658653    1.51531246452667    2.06941997706708
H          -0.45482218340172    1.73817454495919    1.34188463437175
H           0.14593694544829    2.23683279159860    2.69738607495470
O          -0.65919785089482    2.24729993355673   -2.36445971479706
H          -0.06069782352218    1.52409456452786   -2.09891560044501
H          -1.19667764132145    1.89054855000506   -3.07367055520531
O          -0.78608527828137   -1.05402762821398    2.12987518999343
H          -0.49965006726513   -0.14117220454512    2.32097953097863
H          -1.24012471848848   -0.99277771534439    1.26746848599895
O          -1.57146586289625    1.89700943680232    0.19141594650017
H          -1.67873640976216    0.95511943972032   -0.03973339607772
H          -1.27841765477526    2.31478636615786   -0.63791664803712
N           1.37473156845682   -1.98980771787861    0.99780824657670
H           1.92299424817394   -1.07397078491675    0.91347986755682
H           0.99560706212155   -2.22475294480278    0.04338844290687
H           1.93545704811551   -2.74568320739158    1.37519338986508
H           0.52600580450852   -1.76199785589720    1.60676211040106
