    26
        -50.47208111  Gyration_radius:  2.44920106216 Dipole_moment: 1.538
 S          -1.13206847697909   -1.56075110453327   -0.84446200430614
O          -1.85753717688907   -0.36898551631108   -0.41833107011526
O          -0.34473370340266   -1.31589257002738   -2.03816431913674
O          -0.37731620821634   -2.15637367589898    0.24001816843883
O          -2.22282605720528   -2.63542401538607   -1.25142603777132
H          -2.50185009777189   -2.33704989103428   -2.11105163025654
O           0.51579480729428    2.55429681585368    0.04461770484687
H           0.11611875481380    2.15753045249969   -0.77474142033054
H           0.65473631507626    3.48256053341488   -0.14615551493554
O           2.29044742157289    0.64745061758883    0.93796913400731
H           1.80490875201197    1.42279025294167    0.60477593895270
H           2.35699346200543    0.02707398071621    0.17903053070029
O          -0.67858704010713    1.39729861154165   -1.98593246220018
H          -0.16586015101557    0.75740823686787   -2.49192894711598
H          -1.26910681358835    0.83209016083234   -1.44618968498867
O           2.07383901219252   -1.23602032431706   -0.96117200241588
H           2.08535379899900   -2.07751366150743   -0.50014196592486
H           1.22405937047509   -1.23448311654291   -1.44648691566823
O          -1.44069085219198    1.36183420683111    1.61255350711972
H          -1.82271992665615    0.80599161042052    0.90788766340833
H          -0.82863514063751    1.96485680522889    1.15378916909201
N           0.30771096843394   -0.51224833673276    2.18168046648767
H          -0.43874162313602    0.24498420785231    2.15629178078871
H           0.01442433090625   -1.24659470125700    1.48492655217269
H           1.20882760428533   -0.06733267414790    1.80587924741076
H           0.42745868973676   -0.90749690488610    3.10676411170537
