    26
        -50.47026230  Gyration_radius:  2.45480829005 Dipole_moment: 3.219
 S          -1.38367344967474    1.16766753937653   -0.15095729947215
O          -1.84966737237969    1.44371734881286   -1.48814025645547
O          -1.80301833620715   -0.11432158147242    0.37930598317151
O           0.06275439953695    1.34678252080661   -0.01654998772052
O          -2.05620765125158    2.26410898681660    0.78232966953682
H          -2.25934789784586    2.98290652401366    0.19212964489141
O           2.70800696226363    0.52928883469082    0.53611220711395
H           2.86078533413232    0.15549509608928   -0.33616056923355
H           1.89344060647325    1.04538095377907    0.45630237586685
O          -1.21949580121074   -0.53238527364607   -3.13942319978552
H          -1.40298515552736   -0.23586886167334   -4.03260385353323
H          -1.56171903742683    0.17145960237589   -2.54678962339254
O           1.07193393582241   -0.44897906891065   -1.76369561136205
H           0.77592855570756    0.33430761405355   -1.26251449806678
H           0.38132999137087   -0.57545063742994   -2.44530728573799
O           1.58499664115796   -1.19871538958076    2.28031133636240
H           2.22482306091800   -0.63165132985914    1.80224774149984
H           0.95017152642077   -0.56125933668887    2.66728131121745
O          -0.30195841319434    0.70427086181035    2.59318933373685
H          -0.12095134774635    1.08532601387877    1.71959787756034
H          -1.22629661688483    0.44680464770786    2.55742004147080
N           0.13230376014775   -1.91074470414475    0.24114190638837
H          -0.72540440100140   -1.31107272288801    0.34477030659366
H          -0.11649201063823   -2.88647536926696    0.12554400106085
H           0.62936959705840   -1.52736379504406   -0.60815603153400
H           0.75137312995312   -1.74322847359664    1.11261447981549
