    26
        -50.46718736  Gyration_radius:  2.49771452477 Dipole_moment: 7.261
 S          -0.77937363371652   -0.62224603438389   -0.79072197017992
O          -0.20380277705558   -1.00037101975417    0.49900533872878
O          -0.56405691968564    0.81341466523733   -1.02493801950656
O          -0.21250801280935   -1.41377792296014   -1.87308566309644
O          -2.28865892288039   -0.88948966689360   -0.76568627838469
H          -2.68012477138763   -0.44096101231845    0.05557026600394
O          -1.61321630610906    2.51046148219600    0.67603088116116
H          -1.19197820139380    1.90181411931137    0.02486677354122
H          -1.71598889551920    3.35133626901566    0.22925808675255
O          -0.84516141437973    0.44883612372058    2.64817133102696
H          -0.79445334188899    1.35343238914049    2.32040407819558
H          -0.52081663110786   -0.11619608284023    1.92018934738139
O           1.96183479125849    1.30822964333608   -1.44547050579813
H           1.00217240668407    1.17120386847737   -1.23647549242409
H           1.97813889801434    1.87013380409819   -2.22225688753754
O           2.11467363472745   -2.07176221043067    1.07470794377185
H           1.17355956941042   -1.80306237695244    0.95640414099816
H           2.42695266501846   -1.58442951341444    1.83963086136286
O          -3.16302838204406    0.34894975853282    1.29280409515058
H          -2.96451387587722    1.27170343974026    1.05809721442628
H          -2.51962443845806    0.15816793218058    2.00811376044828
N           2.31773187012100   -1.32618419410380   -1.46267740232072
H           2.44361211905262   -1.66855267083891   -0.47542069112716
H           1.27730544758222   -1.48423830478743   -1.70367198170367
H           2.42790583659301   -0.28386962191152   -1.49046586526985
H           2.93341926585614   -1.80254285340011   -2.11238336160578
