    26
        -50.46824491  Gyration_radius:  2.53411676654 Dipole_moment: 2.109
 S           0.12032656425460   -0.93482892046239   -1.70343046175378
O          -1.06749019985840   -1.72248758447009   -1.43900463776052
O          -0.21228494301475    0.41055453970232   -2.15686120308963
O           1.05632481553009   -0.92876322495274   -0.59563873369381
O           0.87727489137398   -1.63725724169626   -2.90479004192840
H           0.20899454880786   -1.70451132199487   -3.57989005886121
O           0.98492409163671    1.31192001190386    2.90875608914602
H           1.70822397342102    1.16312995082913    2.24545332484882
H           0.85135892772820    2.26066468323623    2.93862750975516
O           2.56272056576643    0.96168545943854    0.81463336075464
H           2.11159373760528    1.62297485792125    0.25582133116333
H           2.35185679687265    0.12027055293781    0.38832157369740
O           0.93475486018081    2.40816020116681   -0.80309128803761
H           1.16170477122080    3.08164437980357   -1.44568789144311
H           0.52405940878450    1.67852047132489   -1.31063324648342
O          -1.66682746687917   -2.61030093309382    1.01377320568217
H          -1.38426345837027   -3.52173592379572    1.09479696381663
H          -1.50061365001092   -2.35639765950607    0.08125642105459
O          -2.30131892428980    0.68764104494727   -0.52500607178148
H          -1.61733517949738    0.73584339637348   -1.22126534775350
H          -2.77326207286941   -0.13133146826220   -0.70113681892802
N          -0.59371424842226   -0.16758760416807    1.35835573482434
H          -1.31520366513880    0.35712624890722    0.81041859868877
H          -1.02618798614273   -1.03917121584697    1.69967022086875
H           0.14012021012990   -0.45735656576311    0.67048797845704
H          -0.13573636882010    0.41159389551532    2.10606349876123
