    26
        -50.47304638  Gyration_radius:  2.48602934559 Dipole_moment: 2.145
 S           0.03127560027828   -0.87197801174536   -1.93426251134898
O          -1.38159618417472   -0.62554501863988   -1.67171965751333
O           0.65969373425094    0.23104772950428   -2.63217490526535
O           0.74504022211553   -1.29233034046716   -0.74325788205349
O           0.08761047446650   -2.10967705259372   -2.92408480764480
H          -0.16860590476533   -1.71906792257980   -3.75282747280222
O           2.27581652368561    0.45939860567321    0.59587569924663
H           1.84772787921866   -0.26136791912435    0.09484813222075
H           2.00072186820937    1.26942443681963    0.14040799884828
O           1.17454782751638    0.16189427053025    2.94167908034466
H           1.58246196381864   -0.63118177179417    3.29273863846827
H           1.65823341084803    0.35344634732723    2.08935007566878
O           1.00877355319353    2.27207112960963   -1.06975974895847
H           0.92385371740875    1.51889894771964   -1.70958122885060
H           1.26788019690149    3.03522746999345   -1.58863321667573
O          -1.39039852921820   -2.17825113300008    0.47943888978530
H          -0.45360852481689   -2.14842651035923    0.20320418481961
H          -1.82383742597680   -1.78564672295408   -0.29782386623911
O          -1.45077193276584    1.54207115224971   -0.14106395416714
H          -0.61059229963254    1.97969212171593   -0.36763990430694
H          -1.54223915990657    0.81284809201121   -0.79073617123451
N          -1.29944798820840   -0.00057585696259    1.98227490761118
H          -1.36966111619593    0.72558634398820    1.20287623467257
H          -1.39244470733415   -0.94431430606588    1.50175396619190
H          -0.34631875620904    0.06879696102518    2.43220922761609
H          -2.03411443270654    0.13795895812391    2.66690830157060
