    26
        -50.46806506  Gyration_radius:  2.49045914367 Dipole_moment: 2.796
 S           0.11707033996973   -1.00116380867790   -1.65072787608472
O          -0.99235476697354   -0.35083599987640   -2.31798409010457
O           1.05640992948216   -0.04781416830735   -1.07871886019956
O          -0.28294535501810   -1.98613722916402   -0.65918013155506
O           0.88886421923157   -1.78901532356864   -2.79127808557747
H           0.45519025489924   -1.48085643807722   -3.58074157580879
O           2.41532347646465    0.17552003537780    2.20011435566942
H           3.17924762766082   -0.34368886930243    1.94340965024137
H           2.40684552474839    0.95176828960530    1.58681090907457
O           2.29010321064207    1.96456612736746    0.25669472287637
H           2.05020738317770    1.25238577562493   -0.35869811819786
H           1.53680483832148    2.56257039684673    0.24815219691826
O          -0.57905313124487    2.02573374183484   -0.75665958979141
H          -1.21340226226623    2.01063136663734   -1.47728955625275
H           0.01673617845803    1.27073555336349   -0.93707807612795
O          -2.85552834153472   -0.86021186303469   -0.48827100121837
H          -2.54930721779034   -1.74553672799385   -0.27424210059975
H          -2.30799571064866   -0.60198371662548   -1.25548457635276
O          -1.83968089069992    0.84731372569575    1.31433067607237
H          -1.41635638878916    1.46840254819425    0.68592790972750
H          -2.41717021256766    0.28701187313421    0.75023730510683
N           0.01761177539186   -0.93427496446148    1.74342594659434
H          -0.72480661108238   -0.15396752888624    1.68528220131929
H          -0.22006945039687   -1.58939800392809    2.48100183177937
H           0.00170227767713   -1.41687586651471    0.80678394844440
H           0.96655329287698   -0.51487893536437    1.92418199404771
