    26
        -50.46618600  Gyration_radius:  2.5386676035 Dipole_moment: 2.750
 S          -0.83457899634755    1.37329929354847    0.25912179574211
O          -1.19258549674068    2.28577777259413   -0.80232619204634
O          -1.42511457520660    0.05856291660522    0.09260691065596
O           0.60108699539948    1.29499609750317    0.49683601978168
O          -1.44816056327867    1.99488683583043    1.59184951894103
H          -2.23449355790731    2.41847489260542    1.26448420052932
O           0.63829456113063    0.68578850008484    3.11246341843787
H          -0.03975471881934    1.27358490153001    3.45224039010195
H           0.77691697699713    0.95804716815841    2.18780254391165
O           0.09646586901213    1.90141814557395   -3.06668736326935
H          -0.38009127086344    2.16927829190236   -2.24597372762074
H          -0.58553521205743    1.64204372610644   -3.68922615662435
O           0.79678298715535   -3.10290658986329    0.59577102099805
H           0.32844348451171   -2.53273379706471    1.26066498839962
H           0.53697282240490   -4.00260018393419    0.79775029828781
O          -0.25872642240089   -1.82048276677422   -1.46581624553505
H           0.13191361583304   -2.41424890152339   -0.77751853786404
H          -0.88077008816135   -1.24968282598035   -0.97636525911884
O          -0.63355362166219   -1.52069020750413    2.14530906796631
H          -1.04584408923125   -0.98391954006322    1.44529208158511
H          -0.10311094814951   -0.88969806397322    2.66747080832149
N           1.46777554673915    0.08648499561776   -1.68211967402375
H           2.44591256625213   -0.13665039798696   -1.82982557180142
H           1.09742386772946    0.75870408563247   -2.39689135828836
H           0.83199102458113   -0.79725163892671   -1.68303120936494
H           1.31233921307480    0.54951729032089   -0.75388174812493
