    26
        -50.45882030  Gyration_radius:  2.54942751704 Dipole_moment: 5.480
 S           0.52881758143544   -0.59817409233678    0.69842447602264
O           1.31249164253542   -1.76510852277311    0.38722653761719
O          -0.56920223659958   -0.42229714697370   -0.40435867859782
O          -0.24047591860531   -0.72218345341663    1.93819756266188
O           1.31828983115234    0.63495761500329    0.69542032091387
O           0.97743806764155   -3.24730011043149   -1.78820524072034
H           1.16258328526609   -2.79900802100145   -0.93577480069005
H           0.36028426821773   -3.95238229662373   -1.58977383025653
O           2.89899305978010   -0.12056223180440   -1.30006398487922
H           3.15009329585562   -0.99886851706984   -1.00002323274790
H           2.43235760626120    0.27838719917339   -0.54051226281556
O           0.22546757009363    2.79669260492682    1.56382306373551
H           0.69810681440988    2.02171417166574    1.15164701959096
H           0.84803601760684    3.18321219356391    2.18237115563270
O           0.64819017064193   -0.69580123294427   -2.58203024910712
H           0.72851079840094   -1.67020071432941   -2.59394082700994
H          -0.09877617388453   -0.50242056928628   -1.32376796577544
H           1.54485549433375   -0.37616779806488   -2.31987228398307
O          -1.64260934116835    1.25450765333611    2.33257755225976
H          -0.96129307104241    1.98664694979759    2.13165718914396
H          -2.27613678225442    1.22606261754289    1.48214366051299
H          -1.05688022607988    0.35541654156804    2.23772586885867
N          -2.93185874020667    1.08699938493639    0.14402493463158
H          -3.82496096132162    0.61299423912259    0.11806942065032
H          -2.23046749542386    0.48925703910733   -0.29498308434064
H          -3.00185457707707    1.94362648733797   -0.39000235129946
