    26
        -50.47339465  Gyration_radius:  2.40659636562 Dipole_moment: 3.104
 S          -0.42251065243193   -1.26372928730932    0.15966870680997
O          -0.71605053197466   -1.47952580536445   -1.24527472344397
O           0.68665928531937   -0.32470473417946    0.34084861586829
O          -1.58979842767549   -0.80173563089973    0.89899096329597
O           0.02565634638735   -2.61455808263899    0.79843852418586
H           0.76352058207428   -2.88735740534545    0.21915715687478
O          -1.06755022060451    0.43731648001758    3.22260288431383
H          -0.79607811452421   -0.19942621191337    3.88481271192775
H          -1.32481421037029   -0.08334661787182    2.43528466685242
O          -0.43355058425292    0.90117484426315   -2.36259737563716
H           0.53901200163153    0.91439047991393   -2.36668249213515
H          -0.64713558270065   -0.03319483013082   -2.15858325841976
O           1.66374953094662   -2.66173078666811   -1.30983749388027
H           2.26070501854071   -1.93110939965123   -1.50938089058728
H           0.80378483811755   -2.38429282221580   -1.66520797986486
O           2.19620036247706    0.27793899384357   -1.70649851048335
H           1.67647970607909    0.03209565359548   -0.90730013501326
H           2.86971774351279    0.89184179754953   -1.40945228704953
O           0.40161294570583    2.02197333517830    1.59565734791658
H           0.76529725327076    1.20536722989936    1.20184377978290
H          -0.04747201897803    1.70249173057262    2.40090920084677
N          -1.54779374783033    1.68264271638201   -0.11028214443497
H          -0.79352197883730    2.04457324757770    0.56148561402968
H          -1.80132957572209    0.73892813867029    0.26237889922318
H          -2.35492018069338    2.29548522313919   -0.15940454588571
H          -1.10986978745494    1.51849174359383   -1.07157724509112
