    26
        -50.46885294  Gyration_radius:  2.44078716909 Dipole_moment: 4.310
 S          -0.87405692347551   -1.43272260912718   -0.96443093233500
O          -1.42936621365260   -2.23081909114123    0.10402726108125
O          -1.47275900226243   -0.09210414839618   -0.99065540040199
O           0.57128642827545   -1.36103061050735   -0.96863116799597
O          -1.29642120242130   -2.13714311326903   -2.31346061224336
H          -2.10685500674277   -2.55842731537312   -2.04991370008925
O           2.10473166383997    0.13326960893488   -2.55306265895799
H           1.55399321678134   -0.52444487592309   -2.08292232971753
H           3.00095142045045   -0.00159279303606   -2.24038222004960
O           1.61021453983843   -0.59683582654937    1.40329458136650
H           1.56770233390486    0.36604784728063    1.31871004534144
H           1.35877523429849   -0.95157597763169    0.53130043505213
O           0.30364771723139    1.87421418718670   -1.53140323236218
H           1.01910901371068    1.42531016919503   -2.02325114752797
H          -0.41075620519289    1.21197835051702   -1.47977403360618
O          -0.68424569311241   -1.36609720952482    2.50878675740176
H           0.27511672096323   -1.23062333192297    2.33187702633402
H          -0.99940729939962   -1.89988891094395    1.75020542831869
O           0.90968602564771    2.12341323775519    0.96323202654078
H           0.73736988980461    2.06801245076008   -0.02873696874213
H           1.30499642754166    2.98106406799466    1.12121974950656
N          -1.43054988793989    0.86579131179835    1.45399143680998
H          -0.59241984176407    1.48434677543898    1.43774055595375
H          -2.24961777898623    1.35207934948086    1.80032610122662
H          -1.57619710050589    0.52243528305312    0.46465985477288
H          -1.19492847683265   -0.02465680604969    2.03725314432366
