    26
        -50.47031913  Gyration_radius:  2.49292079855 Dipole_moment: 3.325
 S          -1.19675174467437    1.48488675371648    0.74696752951557
O          -1.32356686053108    0.13501317272278    1.24049546644351
O           0.16924359153931    1.99653280664222    0.81785425047342
O          -1.75742398215804    1.66659414071609   -0.58585013436548
O          -2.05494420524822    2.39635424576075    1.71719744793891
H          -1.97335598404071    3.25535418352376    1.31591283282288
O           1.83389803958450    0.74452084866389   -0.85206907634159
H           1.34732917786418    1.33546257215989   -0.24092629189358
H           2.08071760707081   -0.02749658010107   -0.30975927537759
O          -0.34560142953657   -2.21558226197289    0.33579055776492
H          -0.80831753532509   -1.43682027721138    0.69606492476794
H           0.59591489143708   -2.05275442187549    0.50682071545540
O           0.92030859844730    0.31597120789964    2.72194623646498
H           0.83974145734163    1.10535778188264    2.15358065217198
H           0.02976689161072   -0.05867575548470    2.68336081138565
O          -1.03700247392478   -2.19105863676952   -2.17652353196891
H          -1.97599744968332   -2.38306843660719   -2.16836298781132
H          -0.73038920656349   -2.32134649942660   -1.23629059868000
O           2.16546635210327   -1.23963258940272    0.99982529491826
H           1.76437716833348   -0.68062532631038    1.72000039245169
H           2.96113410734150   -1.62683873336537    1.36615642458170
N          -0.30356847642857    0.35727535560395   -2.31723163136897
H          -0.60304049804690   -0.65581188008854   -2.35417724677180
H          -0.96804561193810    0.89515960155313   -1.68928722022943
H           0.65080785718123    0.43718608152771   -1.84559999569065
H          -0.28070028176481    0.76404262625325   -3.24589556663527
