    26
        -50.47042451  Gyration_radius:  2.49755620649 Dipole_moment: 3.274
 S          -0.30293748202076    0.67208397650627    1.42708948604355
O           0.74603019116337   -0.34006486557277    1.29974991483136
O           0.20915159564438    2.00144043045178    1.13306690087006
O          -1.45299314435621    0.34258439231027    0.59756582496628
O          -0.80600745541314    0.64560645216930    2.90379958318959
H           0.02200391692617    0.63822842380537    3.42567152078054
O          -0.43893176434057   -1.73137356353187   -2.27902647602197
H          -0.37357238709858   -2.53102944735055   -2.80252744930403
H          -0.88345148036200   -1.98454968670170   -1.43089177895531
O          -1.69108174825176   -2.19617202019013    0.00479896829000
H          -1.54698296077673   -1.28392005780420    0.34916483813186
H          -2.64212354296419   -2.32178403238157    0.00079892007371
O           1.67208198109001    0.17896684409241    3.69125713314669
H           1.59891497786790   -0.07840354505753    2.74881221609560
H           1.80956992521940   -0.63320389962416    4.18407394270189
O           1.78002157545561   -0.54543328642278   -1.14584361956857
H           1.09399513119325   -1.05081664015970   -1.61977229673203
H           1.51637794085615   -0.58756406993068   -0.20212223874690
O          -1.49164950275038    0.85341988958706   -2.04786797043544
H          -1.22815319978842   -0.02854210150579   -2.35440384472216
H          -1.68261092449719    0.74017449070337   -1.09541456561893
N           0.83833776563795    1.88131671244842   -1.38202136950963
H           1.39925760030914    0.97289838107951   -1.39513685492607
H           0.63813815472839    2.07905461531955   -0.35524867605711
H           1.31473633792007    2.65326274767658   -1.83356425966760
H          -0.09812150138964    1.65381988008424   -1.82200784885500
