    26
        -50.46516761  Gyration_radius:  2.53863191866 Dipole_moment: 5.803
 S          -0.07142632744204    0.61717435568606    0.00412710753745
O          -0.52921706792558    1.06899079474714   -1.31983600286245
O           1.17379600034764   -0.13493484521654   -0.12126721066157
O           0.00509964833399    1.67680576955339    0.97639023563952
O          -1.17647388281781   -0.40198502382306    0.42854484243133
O           1.73969540104912   -0.06455269708099    2.47873130097609
H           1.64159504900613    0.87619084953897    2.65020744355316
H           1.69325960129995   -0.15061485226146    1.50734109230946
O           1.38414965006588    0.80639867574772   -3.20911317315545
H           0.69277195613442    1.03404015098145   -2.55617146815928
H           2.14246762932554    1.34982212922747   -2.98961083807894
O          -1.39074737475821    1.72630028400411    3.23871651498761
H          -2.21012819930894    2.19580745334898    3.07837155297898
H          -0.85397158442848    1.82831376853566    2.42497661080821
O          -0.76621728669049   -0.86735051695789    2.86580761491903
H           0.21295383016488   -0.75414076873553    2.89115966302505
H          -1.11850587056688   -0.04002378710882    3.25039666667923
H          -1.03767258179867   -0.64136378913184    1.42577114362879
O           1.32141678223258   -1.69403158857873   -2.22698214012577
H          -0.16886021061959   -1.61774116717663   -2.26357590034147
H           1.55320231059064   -0.96356022009772   -2.83629721541977
H           1.43403556124941   -1.27667492327027   -1.34106118245280
N          -1.20531139190551   -1.26391368341806   -2.14671252538002
H          -1.06383623290742   -0.22658913729624   -1.88877775807727
H          -1.63971055119586   -1.69906331557993   -1.33443084169776
H          -1.76236486743363   -1.38330390562589   -2.98670552305773
