    26
        -50.46532004  Gyration_radius:  2.53199096434 Dipole_moment: 5.493
 S          -0.71421269818376    1.88486059267318    0.80537241709709
O          -0.46820780630315    2.44283994187620   -0.50743843235498
O          -1.37246855985372    0.57488801356911    0.73990020869022
O           0.43303683830676    1.85473752593723    1.68048714838534
O          -1.76619120605070    2.85540263729864    1.49486271873499
H          -2.29513018898879    3.18844347259727    0.77503103398123
O           2.18427205022714   -0.03768998873267    2.03031375630952
H           1.57126210785219    0.73199321524228    1.92592137923895
H           2.58455146390069    0.06168882637010    2.89525698701767
O          -0.08798129693422   -1.02960054151833   -2.64772154362344
H          -0.93607938960166   -0.55713999246038   -2.51903976645946
H           0.56302208697469   -0.47254421311392   -2.19364812070193
O          -2.07839522296732    0.63260287543869   -1.85355392155423
H          -1.59155390161229    1.45926649760685   -1.95502345120812
H          -2.00647369207768    0.44604462360882   -0.90169578352564
O           0.28299963200600   -2.99710856436376   -1.00915419733946
H           0.03721845373004   -2.31311014461076   -1.70281269835040
H           1.15317162414354   -3.30964967230727   -1.26219740536877
O           1.28016664291582    0.44082151396198   -0.77380170729204
H           2.01445914732289    0.57299834887041   -0.17028677687840
H           0.73500862824211    1.24523171211765   -0.73709296633126
N           0.10003431675163   -1.55266658124088    1.18862220351446
H           0.20981333953871   -2.13600385876859    0.30117480415396
H           1.01186898030731   -1.15410153737113    1.49579754651934
H          -0.52377424413811   -0.72121557396895    0.97651099637860
H          -0.32041710551522   -2.11098913871366    1.92421560096402
