    26
        -50.46968429  Gyration_radius:  2.43240326978 Dipole_moment: 5.713
 S          -0.97158318005867   -0.68024160394912   -1.25448656728809
O          -0.09428656036778   -1.17928280226504   -2.29217055902792
O          -0.85509503745439   -1.42735140161411   -0.00852165901657
O          -0.84050847557595    0.74699905168851   -1.05152875762618
O          -2.45375220557669   -0.94680142977981   -1.75948824186427
H          -2.35980495015015   -0.86012822713407   -2.70186626734561
O           2.32512071421008   -0.91318979019909   -1.35086327680726
H           1.42278508370503   -1.03088896587446   -1.74150774487949
H           2.93517849604402   -1.31128946275847   -1.97430545934179
O           1.23934463307967    1.56246327574542    1.85080029489275
H           1.51391095754365    1.90054369869418    0.96864805597505
H           0.26214640981060    1.71761122144337    1.87504625461941
O           1.65633290984565    1.78539961487135   -0.77997989465266
H           0.72647214943381    1.58493608677592   -0.98546257167633
H           2.14919973664775    1.01081006102116   -1.07913352636754
O          -3.03366009610399   -0.47443278142911    1.22746230613651
H          -3.69554728207619   -0.40894631103017    0.53702151499200
H          -2.27788231192556   -0.93554315331887    0.82438950758440
O          -1.36243910076377    1.71734872342973    1.42577966771288
H          -1.23585039960244    1.54119168720382    0.47719194353300
H          -2.02125348454759    1.05992520418266    1.70006851707293
N           1.41006244799646   -0.91398739769007    1.23714122723391
H           1.36452753768407    0.14233457873392    1.59066520661186
H           0.45936651489871   -1.16844354983183    0.87050351571587
H           2.03933341542786   -0.96959789277936    0.42169835218258
H           1.69788208786970   -1.54943842412528    1.97289818162899
