    26
        -50.45882046  Gyration_radius:  2.54901886579 Dipole_moment: 5.480
 S          -0.06446201251232    0.58178056145869   -0.88685738970940
O           1.20838769887940    1.03546473016404   -0.32290223160990
O          -1.09662333765061    1.60993952622660   -0.73884731755877
O           0.06480146766085    0.08405998769874   -2.23153106234126
O          -0.56533225057967   -0.58232760244093    0.03323963056595
O          -0.36077362991940   -2.43943416846770   -2.93285468017282
H          -0.21771699986737   -1.47885945003096   -2.79579538424319
H          -1.27667021574315   -2.53738381162911   -3.19528577399821
O           1.17648053191429    2.27737329111033    1.93037023237789
H           1.71190685656824    3.06400167180036    1.81170558091902
H           1.28136543901032    1.74853702111177    1.09184582746590
O           2.66122512255710   -0.83029127833748   -1.53007643339059
H           2.27462938086743   -0.06905641843463   -1.05574638331355
H           2.33560497142929   -0.74899242024225   -2.43112525727391
O           0.88812531131713   -2.54333543533628   -0.55001675989281
H           0.46057171255927   -2.81033444900069   -1.38782080814124
H           1.70930921880666   -2.07190800440185   -0.83009634644668
H           0.03089911035517   -1.40723142677147   -0.15979684904707
O          -1.34323821744140    2.31129436951692    1.60132931427984
H          -0.35945663166844    2.42013422626529    1.84846195297818
H          -1.29689578725438    2.06507611315653    0.55368867656818
H          -1.64251684117841    1.40045715811548    2.05513525663181
N          -1.88258787736500   -0.00783172004075    2.50199812299530
H          -2.84577393606718   -0.29560271986940    2.61345244650113
H          -1.36031963208209   -0.29349363564695    3.32022669159106
H          -1.49093944256276   -0.48203610596481    1.68729893424779
