    26
        -50.46944517  Gyration_radius:  2.48623039259 Dipole_moment: 3.822
 S          -0.50474431154032   -1.74353784259803   -0.79641970939725
O           0.29078337193743   -1.99213776143226   -1.97074990933706
O           0.30884416686178   -1.30054168780150    0.34410476198973
O          -1.64621458303574   -0.87494485300902   -0.98088903648333
O          -1.09367945352380   -3.16060145592231   -0.36951764122582
H          -0.57731520842923   -3.75961209721313   -0.89846830482122
O           1.84845984190828    2.09002482165123    1.77782027057947
H           2.24463039712943    1.33453064978369    1.29875979269070
H           2.11280454312538    2.87809748539550    1.30013362486703
O           2.61844418502861   -0.05534632976812    0.27814611992124
H           3.33993577271821   -0.65861935528742    0.46158992574766
H           1.79187947964758   -0.59301410799104    0.31387665427892
O          -1.13666470815607    1.78510927901270   -1.29146731164305
H          -0.27685797583967    1.55757476627758   -1.70537783434643
H          -1.66628773577749    0.98395087248500   -1.42495795804474
O          -2.76776890213154   -0.51049872319155    1.42933335516950
H          -2.44380219660483   -0.67703082847037    0.52212974140614
H          -3.32814408157600   -1.25499618964674    1.64870359487794
O           1.11930031109761    0.56764287725710   -2.06187823659395
H           1.83652420037134    0.52632372581807   -1.41676934190685
H           0.83941137860571   -0.35357282938606   -2.20480242129117
N          -0.58462116768612    1.06532688615354    1.17799434773200
H          -0.84911022333288    1.51034255657792    0.24396504478606
H          -1.41835544805024    0.95287472463971    1.75614070942779
H          -0.25111671958303    0.09901350436127    0.94019138100653
H           0.19366504684313    1.58364192234540    1.62840837050427
