    26
        -50.46144514  Gyration_radius:  2.51097158433 Dipole_moment: 3.006
 S           0.21347228350446   -1.15375227131991   -1.71867868912602
O          -0.00733101225754    0.20320340619447   -2.20922758404912
O           1.18574110461663   -1.14458618413658   -0.62505831371058
O          -1.00358105091274   -1.83866562270583   -1.37656767039244
O           0.89462051221744   -1.94702052067099   -2.90214202447675
H           1.69148347700231   -1.44461165341669   -3.03446821516201
O           1.04763589266885    1.56449947026039    2.01788246899922
H           0.91117747283465    1.83166214707718    1.07312586594881
H           0.95890153261091    2.36048285637185    2.54281933380528
O           2.80043115528521   -0.76889071329706    1.70185127435298
H           2.54152048591827   -0.96917364185913    0.79531340905480
H           2.54627052955449    0.14825686288580    1.85013828831671
O          -2.21119561751424    1.26609652943224   -1.18815267101763
H          -2.90716853162636    1.31718683692698   -1.84507346621239
H          -1.44864798196156    0.83394563339583   -1.63665350433021
O          -2.49000815665668   -0.79534551467506    0.56090750805572
H          -2.16102169631767   -1.38211895651605   -0.14954963660689
H          -2.56769120248435    0.06931489438686    0.11427341238575
O           0.44695931171713    2.19911104637337   -0.46679351139959
H          -0.48667254040405    2.43635638112420   -0.49550128663887
H           0.52446658260787    1.47075177784968   -1.11228353505475
N          -0.10693625261518   -0.85673626031399    1.64766376922472
H          -1.13851322011182   -0.81590767147360    1.37690254766704
H           0.43206298317143   -1.06137347795289    0.75788148058483
H           0.24342146036169    0.05985851499880    1.99199371126948
H           0.09060248878985   -1.58254384893784    2.32939706851104
