    26
        -50.46372005  Gyration_radius:  2.50687379741 Dipole_moment: 2.449
 S          -0.56844999202627   -1.69738317866272   -1.01088955934509
O          -0.83268507416683   -2.71677202943759   -0.02207320730337
O          -1.70882467340748   -0.84871671321703   -1.27455637695378
O           0.62298853906062   -0.89817899156315   -0.69649698398339
O          -0.19074495891465   -2.45115180363109   -2.35516339302560
H          -0.82054391983115   -3.16433593111389   -2.38322184863064
O           2.86572549347356   -0.50117244070408    0.70567026926460
H           3.59494855487827   -0.53459487690791    0.08381304486520
H           2.08453161543763   -0.82580641098610    0.21794841370173
O           1.81994222061896    1.86825446136819    1.41848021158290
H           2.47058941952877    2.43370562080347    1.83543990514148
H           2.26657422617911    1.00898364776550    1.24408187269017
O           0.98414639822651    1.76560467477587   -1.35721467084377
H           1.32062846742602    2.02149850709160   -0.48668912435052
H           0.95674904859248    0.79586136639355   -1.35111531738362
O          -2.34822616325365   -1.29514641753052    1.60635709435997
H          -3.08237032656223   -1.10234455496398    1.01764674074987
H          -1.80244315334482   -1.95015823995853    1.11712075269610
O          -1.70405371464306    1.84105942811793   -0.97282687862507
H          -0.83060677168827    2.05692424048836   -1.35603372931832
H          -1.90780385487561    0.94442559410407   -1.29758713352466
N          -0.63738579432821    0.66500235503913    1.10412540562954
H          -0.01244170863420    1.20183298437581    1.71024380473403
H          -1.31873864574915    0.03489796121150    1.58915395142161
H          -1.16104809707257    1.30054220185949    0.42004656996191
H          -0.06045712492246    0.04716853529069    0.49374018648858
