    26
        -50.45882021  Gyration_radius:  2.54957647692 Dipole_moment: 5.479
 S          -0.88337099951869   -0.46701263010217   -0.35500948737584
O           0.05474832291242   -1.59001210852361   -0.30175559156884
O          -1.14094842804029   -0.06778503911474   -1.74014294323446
O          -2.08054099760226   -0.70104829417387    0.40963938965841
O          -0.13210588255801    0.76515168342855    0.25327376662577
O          -0.50232494468042   -2.22200914750527    2.21630681314497
H          -1.46311587575119   -2.23779034720680    2.18287242573794
H          -0.22190333330998   -2.14026110973189    1.28435212572911
O           2.09677406860880   -1.56275802780659   -1.86724854014294
H           2.12041586850401   -2.42146696034741   -2.29342713852907
H           1.37172524873261   -1.61810772728568   -1.18532259563318
O          -2.76692843008857    0.68569694408603    2.56531431131032
H          -3.31297179255814    1.42500581536690    2.29587866103011
H          -2.63492190301370    0.13765318209228    1.76272457144708
O           0.94260753404286    0.43136866120526   -2.93952674639846
H          -0.01497675111813    0.22860878245451   -2.48987344495574
H           1.31613545517516    1.24272184592293   -2.36721183132665
H           1.49864490172995   -0.37421273525768   -2.65216680269041
O          -0.10078105282314    0.35024473946526    2.72819959288863
H          -1.02067382053135    0.60486633986559    2.94058588486737
H          -0.10834777282073   -0.63708443094246    2.73747652874693
H          -0.07506615807002    0.61755479403141    1.27707146702912
N           1.72816170292445    2.24301507565140   -1.33299536516004
H           1.11387249657733    1.92898706667256   -0.58065836683779
H           1.52943768304866    3.21487537727803   -1.53045438637301
H           2.68645486013683    2.16379824051853   -1.01790229799932
