    26
        -50.46087010  Gyration_radius:  2.51864046939 Dipole_moment: 3.167
 S           0.68976894846431   -1.05744679647609   -1.53556812548527
O           0.74639521072153   -0.42480873185978   -2.83211396693095
O           1.46837422748977   -0.40381506356749   -0.50305504183169
O          -0.67188590624462   -1.30009639600832   -1.06161364899842
O           1.34120949431821   -2.49809538371183   -1.74466629917671
H           1.39588550922885   -2.55426355468032   -2.69329592403634
O           1.73571603092582    1.92245393184520    0.95125924669334
H           1.72535624341600    1.21422708252087    0.28530438136606
H           0.84748925991049    2.29502891633533    0.95788953065043
O           1.64058897924812   -0.46001201450693    2.25524400135536
H           1.90539009195654   -0.83724604546949    1.40319268851322
H           1.87452602194557    0.48312251779055    2.16173949640566
O           0.07070379056174    1.89122770591752   -1.80402375886822
H           0.23394122910223    1.03314466382359   -2.25076166660813
H           0.92831877149331    2.32214234509543   -1.75746862147860
O          -2.67054455776291   -2.25361221226848    0.64527056453707
H          -3.16961113920273   -3.03462464805333    0.40422028094582
H          -2.08952770783248   -2.05711238831153   -0.10569468276809
O          -1.13347052085802    2.27456338495010    0.52263227548488
H          -0.75840881134977    2.10612042329961   -0.37651337172750
H          -1.91243788385102    2.81584219214802    0.38900788682884
N          -0.85109554807825   -0.29015456598505    1.36913404835073
H          -0.70822046246901   -0.67699206917005    0.39608516573727
H          -1.09108335193867    0.71195331909950    1.25259677861184
H          -1.61440909549809   -0.82535234836809    1.78261286691387
H           0.06703116632532   -0.39619425439454    1.88858589551868
