    26
        -50.46877064  Gyration_radius:  2.51429548994 Dipole_moment: 1.685
 S           0.84630118646518   -1.12555181827146   -1.32205780042303
O           0.15997201250549   -1.69270315733516   -0.17450788028297
O          -0.02868104027852   -0.46636793716980   -2.26762865604426
O           1.96402151694009   -0.27957323513621   -0.91656246004895
O           1.47502314988510   -2.36456705508839   -2.08431957700772
H           1.73562808282172   -2.00212707048900   -2.92532848158640
O           2.96784033949549    0.28949959168240    1.46749755384689
H           2.74467587797975   -0.00141740670134    0.55635492794398
H           3.22622676101572    1.21028915143240    1.38991337858398
O          -0.89409432852671    1.82766142087400    1.38542564404161
H          -1.77351678669165    1.49221203974362    1.10497748435749
H          -0.41744755576512    2.03207420104797    0.55109625695514
O           0.43287057732537    1.90182428432909   -0.94595443396474
H          -0.13449729948541    1.59038730046360   -1.65888518546399
H           1.13484625269058    1.22749017427876   -0.91149219722223
O          -2.32190238792623   -1.26994587288388   -1.20136819534458
H          -1.62909885571797   -0.89437203102025   -1.77648099918409
H          -1.82155186735313   -1.85555763001593   -0.62130676677784
O          -3.11677284582753    0.68943530437889    0.42696943507223
H          -2.86481771508530   -0.05566788312894   -0.16938121139598
H          -3.80936244207873    1.17036675678909   -0.02715936759097
N           0.42153890817111   -0.29603135705263    2.05365868266751
H          -0.15867959994733    0.60756459087871    1.87213472055113
H           0.27738128242592   -0.92926807133013    1.22577294990853
H           1.43893555040293   -0.04976944896515    2.05495524607471
H           0.14516120641929   -0.75588483130996    2.91367691233096
