    26
        -50.46881787  Gyration_radius:  2.42408148596 Dipole_moment: 4.451
 S          -0.63299157086105   -0.81380512353801   -1.61134095490087
O          -1.91116031822079   -1.42290068201006   -1.31262916871113
O          -0.74171081580940    0.64092407137444   -1.72248771549765
O           0.42651929571389   -1.22313771782089   -0.71770307588756
O          -0.20961390849240   -1.32699315059235   -3.05180281620150
H          -1.01459293083914   -1.24825291643583   -3.55318816231521
O           1.87153738801262    2.01719931022400    0.46448300560701
H           2.04139683069117    1.74452590678131   -0.46100017052044
H           0.93498408161061    2.24962334557789    0.49678178327170
O           1.78244020895212   -0.41597460510242    1.47451301928736
H           1.48133034360095   -0.84870229923914    0.65477194457502
H           2.00751525285745    0.50828067417918    1.19404249424914
O           1.89803338313096    0.83993740851150   -1.98129024724466
H           0.92631819817504    0.87411649894107   -2.02859245514726
H           2.09819557013310   -0.08803589870421   -1.83345541150045
O          -1.56138809967685   -2.27084890979531    1.12137441531356
H          -0.76114863270702   -2.78525770798274    0.98536551603341
H          -1.82175789672685   -1.98296838589523    0.21266094714767
O          -1.03463391054279    1.94234974282637    0.48974516382752
H          -0.93092074408274    1.44607537349093   -0.36548057782710
H          -1.73620274055323    2.57701110371410    0.33643966051619
N          -0.64309550211089   -0.07200265220886    2.27301783810901
H          -0.92782779608569    0.75041006007950    1.70633448348740
H           0.42307465988367   -0.21502142208150    2.08559704698730
H          -0.84820706676439    0.06370993644492    3.25611225638455
H          -1.11609330964081   -0.94026196103130    1.88773118101228
