    26
        -50.47208122  Gyration_radius:  2.44937473815 Dipole_moment: 1.538
 S          -1.13386421258806   -0.41037766665279    1.72735230408039
O           0.00977928267758   -1.20029055102600    2.14244321748619
O          -0.77182571078693    0.98127431556997    1.48127029783862
O          -1.87005549934111   -0.98623345170766    0.61969571480970
O          -2.13545856688183   -0.40850110792819    2.95497968866265
H          -1.55616671602228   -0.28445503595511    3.69982096731818
O           0.86351028187169   -0.96113823815346   -2.20756985210670
H           0.85061994710992   -1.62727522868551   -1.48550757029686
H           1.42682064510567   -0.23438528913291   -1.88745850921664
O           0.43761912161358   -2.55655719465688   -0.09198998655171
H          -0.42934188993863   -2.94507652005860   -0.22683910079023
H           0.36771644839987   -2.09476621688927    0.76797755414905
O           2.06165048143911    1.22076811423324   -1.03103005499410
H           2.06199693146005    1.00632126310352   -0.06031760078214
H           2.90626503238598    1.63296270228483   -1.21580686428728
O           1.85505164693975    0.72821399450487    1.53897978787330
H           0.90917842111433    0.97217307907840    1.61239440846974
H           1.86585756648486   -0.19421944809857    1.81675743568879
O          -0.44980875519138    2.38412365334394   -0.80340158310104
H          -0.62153713305802    2.09602588238411    0.11260146961708
H           0.48763370825295    2.17309974383582   -0.96224298085405
N          -1.45527590272248    0.14076048043512   -1.72538381052539
H          -1.17727867228436    1.13966777507134   -1.48849029036312
H          -1.72912690754457   -0.31841249555475   -0.81704644434843
H          -2.20773132352335    0.09818104408365   -2.40239992234139
H          -0.56622823493198   -0.35188360339349   -2.06878825538865
