    26
        -50.45882053  Gyration_radius:  2.54907808051 Dipole_moment: 5.487
 S          -0.70027935435426   -0.41239266472722   -0.68510824201845
O          -0.35126030801050    0.44405395095477    0.57881821471222
O          -1.77362391410295   -1.31175898753976   -0.35100970631191
O          -1.06446057734346    0.58699546662458   -1.69158015813528
O           0.52992516012273   -1.11021616775595   -1.06386726970302
O           0.18557343922955   -3.10865826228495    0.65037206547473
H           0.42859447913658   -2.47317633380563   -0.05037683432738
H          -0.72678918415354   -3.34591313920424    0.46093483471968
O           2.47519298966853    0.27538747575054   -2.02109668032304
H           1.79745177840399   -0.32097715416992   -1.59810762353413
H           2.76469608062361   -0.17954568483568   -2.81408014270157
O          -2.84272135944509   -1.52298681759662    2.06832299888130
H          -2.55249645778878   -1.50068237268178    1.13170948088996
H          -3.58813936994370   -0.92477997975426    2.13043928002157
O          -0.19772647782215   -1.20829887819250    2.46173953806883
H           0.08910043825560   -2.01109919231502    1.96341697730300
H          -0.25277568808284   -0.20889575675386    1.37688774000265
H          -1.15158392773859   -1.34822073864915    2.62459573219682
O           0.77367916242873    2.16096017725250   -2.10747037005073
H          -0.07876650709374    1.51326154978592   -1.98887966217633
H           0.87955073413786    2.60556323112207   -1.15040018940960
H           1.54729039960985    1.49977750844546   -2.18015936334192
N           0.96269417366455    2.96580328712788    0.30037884337074
H           0.47558895967525    2.15083907386422    0.67515299193210
H           0.47294899793308    3.80056776073140    0.59416101481883
H           1.89833632299383    2.98439264859141    0.68520653964125
