    26
        -50.46819572  Gyration_radius:  2.42377351555 Dipole_moment: 4.195
 S          -0.84537797280258   -1.49783611953250   -0.97287233959042
O          -2.09085444612395   -1.50831147182676   -0.23889284218615
O          -0.65162458574744   -0.28274166313113   -1.73762401310244
O           0.30922659145407   -1.78131610240548   -0.12077968969044
O          -0.91602993406548   -2.70001729833895   -1.99825045563971
H          -1.82950444431721   -2.66178663427690   -2.25937716274524
O           2.40515553761227   -0.21500994407765   -0.57385271289930
H           3.15052705543362   -0.77888537269454   -0.78422342391531
H           1.62334386960677   -0.80572560536184   -0.49815410203868
O           1.43786438621651    1.38017296323178    1.43130408575706
H           2.01159202294147    0.94257083336458    0.77923624796379
H           0.70219773735979    1.75257158849664    0.89765909120087
O           1.21733243200894    1.76585699625155   -2.27702667960070
H           0.53965367764952    1.11143706730010   -2.48593973193725
H           1.86629787729111    1.27406036101555   -1.75772544420716
O          -2.36815882631194    0.45279675632858    1.52051639856805
H          -2.49250285241832   -0.25941199443551    0.85728947609691
H          -2.05469124672476    1.21953382410706    1.01980193713259
O          -0.66659624587945    1.88049653723422   -0.19335502895924
H          -0.72251989307408    1.06076674671656   -0.73282779893921
H          -0.26208151130155    2.51237099409107   -0.80192157856459
N          -0.06826252648483   -0.59225202338535    2.22049479201797
H           0.62835156225838    0.21268295580929    2.07932893562874
H           0.06045959023072   -1.07638284273555    3.10129407119464
H          -1.04717835000213   -0.17505212334522    2.12559342684738
H           0.06338050519100   -1.23058843839949    1.40030452160808
