    26
        -50.46683127  Gyration_radius:  2.55066235391 Dipole_moment: 5.727
 S          -1.03411279291051    0.06414629761881   -0.51789436308341
O          -0.55182095708682   -1.09097849345633    0.24763958103624
O          -0.11018452091439    1.19212359468584   -0.35361329147705
O          -1.19332877099351   -0.27562180725022   -1.92507728683718
O          -2.40734870427738    0.47166106804859    0.02077139782619
H          -2.30120826734964    0.71228956696351    1.01261143350140
O          -2.02678989756145    1.03983625718991    2.45818746469460
H          -1.31509809768529    1.71392789262143    2.41893038053596
H          -1.60259316883262    0.22827086988153    2.81015609559322
O          -0.03776441144261    2.72035613769816    1.79590166470578
H           0.01718254151231    2.16348197491668    0.98830269562323
H          -0.34107224065637    3.58146460781187    1.50334395519998
O          -0.82107648640909   -1.32709185287330    2.86172781651538
H          -0.64927576549570   -1.28101791774681    1.89543594563842
H          -1.43206103412595   -2.05509745769978    2.98738998931138
O           2.12348714198939    1.31888606817091   -1.69136635689602
H           2.80118366937079    1.43912193583229   -1.02392949549101
H           1.25983043096716    1.38134985733890   -1.21077514009096
O           1.36052002560624   -2.61345691475192   -0.65827028204740
H           0.57866659454552   -2.13201454918719   -0.28724405768923
H           2.01111743323555   -2.63348013914742    0.04573646077890
N           1.15719485252791   -0.93634196798640   -2.70714413326901
H           1.39829573163168   -1.70794729528081   -2.03948393721876
H           1.27438534157674   -1.21328860998714   -3.67544851942097
H           0.12817206287312   -0.67973164429884   -2.48925079125034
H           1.71369926990519   -0.08084745911093   -2.46663723619038
