    26
        -50.46767338  Gyration_radius:  2.4999617166 Dipole_moment: 4.036
 S           0.14101214271480   -0.90999839834446   -1.94909125627619
O          -0.97539510459872   -0.16631575977491   -2.48346410204273
O           1.36479929632382   -0.13243571363483   -1.86319603354227
O          -0.18930038426415   -1.57796829348030   -0.68989409948057
O           0.43142294544662   -2.09530148466967   -2.96502412083507
H           0.47516833375535   -1.64575665685656   -3.80274584402038
O           2.22392249588667   -1.26335852989320    0.36242345553553
H           2.32114527703515   -0.78837288655115   -0.48262450062312
H           1.36824677238676   -1.70520032993218    0.22991134914459
O           1.61237642425471    0.73362250212576    1.93169780156260
H           1.89116885983956   -0.05268032730355    1.38003783078239
H           2.40737331150284    1.07418146674255    2.34350516234195
O          -1.87954010312263    1.79724404355815   -0.92263494709133
H          -0.98638413905179    2.14060621849965   -0.68917684926408
H          -1.70232261758081    1.22184707004964   -1.69351045978068
O           0.70198711117190    2.03292603581052   -0.38197066317540
H           1.00845962726048    1.35679014530186   -1.01277527732821
H           0.98528847930269    1.72475329178584    0.49273653677310
O          -0.73422810342758   -0.01969874304772    2.99820616572538
H          -0.50260560382169   -0.85366837751477    3.41089522344589
H           0.10794093993955    0.36677280000113    2.67730498513172
N          -2.03566619697395   -0.25579206316908    0.64079482050067
H          -1.36676925978090   -0.86981127362910    0.10338819375361
H          -2.07110579604871    0.67692383384238    0.08156192037760
H          -2.95433446973046   -0.68233673136206    0.68507854916488
H          -1.64266024853384   -0.10697181852304    1.59856613925887
