    26
        -50.47679050  Gyration_radius:  2.36799673392 Dipole_moment: 3.216
 S           0.01991545197691   -0.38262073571040   -1.50119466727265
O          -0.94296137041128    0.39216763918802   -0.70168023007852
O           1.34932096724859   -0.28956514375140   -0.89674253959578
O          -0.40697278612706   -1.75854503622467   -1.64691426108895
O           0.08476909722822    0.25669544428349   -2.90689123706004
H           0.10652047272317    1.23088342479754   -2.71532008381149
O           1.98607416618051    2.11371232458503   -0.10687691652054
H           2.91670502815942    2.27823932990611   -0.26443215240262
H           1.81808231920939    1.18158093907679   -0.39360385441305
O           1.29148787934241   -1.31880742385972    1.56659193371181
H           1.54924551563324   -1.07831333401566    0.65397933496886
H           0.90553391048773   -0.48549200372067    1.91259717169933
O          -0.00754481342153    2.63744229154721   -1.88251536160761
H           0.76474954380438    2.70072785486900   -1.28752334207220
H          -0.70638067037916    2.24081131276790   -1.34463452635659
O          -2.53391399948632   -0.54837047893271    1.24796733564345
H          -2.18240700664721   -0.15915598723894    0.42254840024907
H          -2.20060363011600    0.01873228826432    1.95042891437005
O           0.03583336093544    1.05384088651385    1.70329947784763
H          -0.33671371688640    0.85843454982929    0.81901180990420
H           0.73283146472000    1.69678997965918    1.52962074751352
N          -0.86216716194101   -2.56457678903655    0.78485365642435
H          -0.73033791330796   -2.38642690612354   -0.25484771400410
H          -1.04424838775915   -3.54253785954019    0.98022268157156
H           0.04170219417016   -2.20854329659470    1.23860125620756
H          -1.64851993538789   -1.93710328051322    1.09345417623486
