    26
        -50.46593685  Gyration_radius:  2.51377889486 Dipole_moment: 2.791
 S           1.24913883487874    0.91825018460133   -1.36551648200241
O           0.48457000381970    0.39990522633146   -2.48211708785625
O           0.56822794753118    2.02179703260220   -0.70668520424213
O           1.64375738674780   -0.12119625451618   -0.42640145058485
O           2.59545023102158    1.50238090292461   -1.95237312630727
H           2.28285135502463    2.18072910165896   -2.54189177982062
O          -0.58160912338847    1.45108123906089    1.62467036954285
H          -0.07254017427861    1.76307647908252    0.84493473630816
H          -1.40956070591457    1.93668403976620    1.58858407105051
O           0.20664543318664   -2.45376763670846    2.48633417187145
H           0.79526007294240   -3.20863276179696    2.45559689035660
H           0.78299033362965   -1.66020689458422    2.60915662059508
O          -2.10180440364047    1.29307138617747   -0.74835390279670
H          -1.22794082297334    1.66549448948048   -0.93897242602754
H          -2.28322183664842    0.66154662064654   -1.45000565788398
O          -1.57812267532108   -1.18385628302974   -2.14692812607751
H          -1.65306693116934   -1.79661614935693   -2.87905696219432
H          -0.79888763689211   -0.61081065630969   -2.34612540370229
O           1.62006274494608   -0.19240376243922    2.34907092000308
H           1.88113941248343   -0.15687479628354    1.41451570407568
H           0.95504277275165    0.50013603957405    2.45177065123871
N          -0.70006368856614   -1.00450087597907    0.43136012535608
H          -1.31600504445871   -1.25497490689396   -0.35603733461436
H           0.25173786235179   -0.79061311130824    0.04126250156522
H          -1.00481006993846   -0.11574732344762    0.88436980386972
H          -0.58924128818922   -1.74395132937918    1.15883836831022
