    26
        -50.47026943  Gyration_radius:  2.42715110526 Dipole_moment: 2.781
 S           0.17588383209480    0.01293857347148   -1.40879246922146
O          -1.00009400670810    0.46004604373847   -0.65200138024146
O           1.21170398620886    1.03488022296175   -1.38211634020087
O           0.63782285377134   -1.27794913956322   -0.93484391844275
O          -0.27745456605121   -0.19250453436717   -2.88558689788605
H          -0.55544111091194    0.70837672758689   -3.14551505826278
O           2.04404712304321    1.50157251136415    1.06857830808129
H           1.76427392909979    1.36880041555682    0.13255426571021
H           2.92259948585296    1.88350609509755    1.03310720321010
O           1.40061784027036   -1.07838038423900    1.64337191386655
H           1.72338898563608   -0.15843134858984    1.66892619531878
H           1.36760039399222   -1.30045905557059    0.69439285047475
O          -0.68969657517733    1.70835924781478    1.83759677127020
H          -0.89142761999126    1.53006727883979    0.91015193283466
H           0.26344405229251    1.85160980553386    1.86222230689363
O          -1.09709425521699   -3.16228691750255   -0.15857014777140
H          -0.65146561511895   -4.01077280849530   -0.16879579742802
H          -0.48397232615127   -2.52996148411493   -0.58967348755200
O          -0.71043044598421    2.39506991342081   -2.66096723229992
H          -1.35988950503126    2.30781416799939   -1.95591450906106
H           0.15377272774618    2.28457822299395   -2.23212980217508
N          -1.21958992330790   -1.07619233899548    1.49638147235518
H          -1.26914546355190   -0.43695806781400    0.65829827591179
H          -1.44114185184822   -2.02744702122055    1.14929882334464
H          -0.19151336631602   -1.05978299976423    1.78474807819772
H          -1.82679855865829   -0.73649313612505    2.23527863309052
