    26
        -50.46810900  Gyration_radius:  2.49083240112 Dipole_moment: 3.695
 S          -0.44711709239368   -1.48834226428029   -1.31472868492838
O          -1.78590366895832   -1.42906242301096   -0.76675281275346
O          -0.15683413006040   -0.41641406490530   -2.24213343533931
O           0.54841334793424   -1.60468145194423   -0.25124668579514
O          -0.32772703361156   -2.84574148428640   -2.12678647008021
H          -0.98938616668696   -2.75611530947377   -2.80532539392823
O           1.03739690663131    1.59811775995385   -0.91777826302062
H           1.77614691401547    1.17105376005589   -0.46702033113742
H           0.66220303136284    0.91823030214825   -1.51029331081565
O           1.58638846478956    0.46428572635107    2.87916430697968
H           2.10063166851740    0.19771213502398    2.08836453761964
H           1.65403082427345    1.41989671669868    2.93078454976808
O           2.66724702884495   -0.25421184503437    0.49943244770385
H           1.91997355788025   -0.81176873241062    0.17825496030278
H           3.46253220649845   -0.77328086779451    0.37132923957530
O          -2.52343128958233    0.97686921769538   -1.60191567553769
H          -2.44687208892102    0.05693135723355   -1.28089059329593
H          -1.84411884642469    1.04343768370350   -2.28097664550433
O          -1.19777742899003    1.96490284598553    0.47890536825022
H          -0.33911964583419    2.04376885163091    0.00348975077301
H          -1.84673229888962    1.76109469859055   -0.23516449149124
N          -0.71591733695703   -0.26433821192996    1.69477903671300
H          -0.34812233942084   -0.89798004423127    0.95138471553339
H          -1.00729972548039    0.67650315077969    1.21655135130986
H          -1.50867199499746   -0.69745773944559    2.15519009832314
H           0.07006711646713   -0.05340976708242    2.35338245077696
