    26
        -50.47051480  Gyration_radius:  2.43826990169 Dipole_moment: 5.584
 S          -0.02061492562966   -0.35049808791889   -1.02953791815424
O          -0.79779895587276    0.63204555003081   -1.75810754422269
O           0.61149847821592    0.26229482755543    0.15750400499668
O          -0.79400813448554   -1.51595307069454   -0.62790256777335
O           1.12705761659594   -0.85803190641925   -1.93182715949144
H           1.37135501251428   -0.07819483992221   -2.51337389567345
O           1.35857911240548    1.36528728435388   -3.19158161800021
H           0.39469914699587    1.39469712950596   -3.09838857154582
H           1.69450232498857    1.92775690418624   -2.46346552650543
O           1.98635402645274   -1.34842069519811    1.74868646062019
H           1.61267157103048   -0.74574216009710    1.06846901080251
H           2.60977446966506   -0.82610479145424    2.25605118545736
O           1.62602948603589    2.54236109019002   -0.78113711443103
H           0.93691317027607    3.19584935188675   -0.64591146316044
H           1.30191204137207    1.71759417629355   -0.36735355882275
O          -1.29474170461959    0.53521705384608    2.05373834898327
H          -2.05414446061704    0.60266332344845    1.43631174127580
H          -0.52248621707200    0.68309620057532    1.47690975713540
O          -2.87554416987512    0.39767849361706   -0.10716676420963
H          -2.19729974891879    0.61900469062692   -0.77480392686799
H          -3.12704767034066   -0.50583506327453   -0.31099809832522
N          -0.60193563920480   -1.96754019293792    1.91376102131197
H          -0.99624855787709   -1.01531012902572    2.20414007952576
H          -1.06939942396000   -2.75902795866088    2.34006460884288
H          -0.70310655626399   -1.95053316657170    0.84998166834107
H           0.42302972820094   -1.95435400391337    2.09593782987633
