    26
        -50.46713448  Gyration_radius:  2.48565447681 Dipole_moment: 2.667
 S          -1.09928155341374    1.31239775611772    0.38666590336781
O          -0.70405548616860    2.58005120294346   -0.20843860373239
O          -1.22359865514089    0.27710736771883   -0.62858476879331
O          -0.25504714837796    0.91466482545599    1.49275574528968
O          -2.54078885852388    1.52660292750932    1.00337285693011
H          -3.07523468081518    1.78128728418779    0.25792640829178
O           0.75323532192113   -1.58885230477198   -0.58816024800873
H           0.57968195678711   -2.31899533711772    0.03987124523081
H          -0.03427952555508   -1.01673156547757   -0.52380485738477
O          -0.16841045790988   -3.31823650923231    1.27419968358065
H          -0.66923694702087   -2.59965387565282    1.71418778186115
H          -0.82542045019872   -3.92824736455960    0.93547997264625
O           0.30778212569955    0.06263464421904   -2.85620744272874
H          -0.45739711208301    0.16376496190911   -2.25917648811076
H           0.70366284661184   -0.77536954148086   -2.58406798290442
O          -1.56929914929064   -1.23808621935869    2.28660394529189
H          -1.71471237490684   -1.11194597650627    3.22593663376865
H          -1.10026861461202   -0.43674322645436    1.97874197994257
O           2.20572755161012    0.30786782737725    0.56036258777544
H           1.47730749693310    0.56856383416712    1.15211940798858
H           1.88276714298012   -0.53489795892438    0.15895512250024
N           1.53116296279828    1.89875725187554   -1.38310721190298
H           1.97696397469830    1.29959448182536   -0.60509036075717
H           1.18257557614524    1.24057178315011   -2.13281631635133
H           0.67023593855333    2.33387383287857   -0.94966667786186
H           2.16592812928309    2.60001987821011   -1.74805831592583
