    26
        -50.47285701  Gyration_radius:  2.42623106144 Dipole_moment: 2.555
 S          -1.57601576427408    0.17314127824061    0.62114444718943
O          -0.53229896304721   -0.38385889534458    1.47796199763392
O          -1.00630730403944    1.15725194314104   -0.30673848320032
O          -2.31933589218393   -0.84264408772481   -0.08239427151823
O          -2.56692193940970    0.94865139835454    1.54782200771200
H          -1.97393935033354    1.50498628448656    2.08132440440132
O           2.52850720767564    0.00405620607413   -0.91660748659157
H           2.34724992176638    0.76358376240294   -0.32591787717001
H           2.27112828261773   -0.79732102294412   -0.40157606785172
O           1.40593308183161    1.98582862610987    0.54181104171791
H           1.30372458048135    2.17685665566596    1.47779199099006
H           0.50417930071780    1.78770043563378    0.22594235174796
O          -0.37336360387398    1.75153371834443    2.90905888225922
H          -0.37170759677756    1.58127127843569    3.85312372644996
H          -0.24146912413403    0.88121519131449    2.46620056944546
O           1.23807474236727   -1.99579340777847    0.26191365178763
H           0.64465588653013   -1.47086640339700    0.83127246906595
H           0.65977395163848   -2.39340298761238   -0.40117346300524
O          -0.85406350071689   -2.30562079642145   -1.65549096692302
H          -1.38388736211612   -3.02813955098817   -1.99619462484271
H          -1.44600643334422   -1.80231492435561   -1.03829231451975
N           0.34458898345697    0.06255335949603   -2.27313392117876
H           0.33598509267325    0.51228425877602   -3.18129870448896
H          -0.26425220446553    0.58084722752487   -1.58156988849750
H          -0.02086009824460   -0.90360054845853   -2.31682840516999
H           1.34662812496098    0.05180101108893   -1.81815104564135
