    26
        -50.46886729  Gyration_radius:  2.57419444044 Dipole_moment: 1.122
 S           1.57308718860558   -1.02390921308146    0.28726842367156
O           0.52412409598049   -1.37083041204114   -0.66619750525584
O           2.31193091679139    0.15494111874362   -0.14936305632405
O           1.07979340031848   -0.92015264302811    1.63829862062050
O           2.60644709531884   -2.22472777787977    0.28219392718282
H           3.00778107148558   -2.21243198898537   -0.58238455174511
O           0.87743424972914    1.82148727781634    1.33476641033022
H           0.86924277683125    1.29756827946007    2.14164107828457
H           1.56503607083130    1.39582130783844    0.78457738088016
O          -1.32766722642406   -1.82066930070985    2.27022458381820
H          -1.26253206638178   -1.95065781065627    3.21784723128278
H          -0.43084140387580   -1.54633617825543    1.97818282520623
O           1.35609763683053    0.28416883317803   -2.64383816654061
H           0.88893881404193   -0.52987047670483   -2.41075411755263
H           1.88168873135390    0.46574647184281   -1.84324054086613
O          -3.14590125427423   -0.22930272999726    1.13579386569341
H          -2.53590701493180   -0.82301601778233    1.63147340566716
H          -3.75959725630715   -0.80619438451308    0.67835385841939
O          -0.69032055954339    2.00119745613960   -2.58724245219461
H          -0.34759288339043    2.89564244438338   -2.61388528820227
H           0.07671878100092    1.40644931147325   -2.76830290702345
N          -1.04385500079864    0.75593423386742   -0.22567657382711
H          -0.54731869684083   -0.14031986674342   -0.43434685743272
H          -0.43444131155351    1.29054829822884    0.43910941779734
H          -1.13078261343886    1.29806471954634   -1.11404670286433
H          -1.96156354135572    0.53084903786391    0.21954771097162
