    26
        -50.47033045  Gyration_radius:  2.48050839489 Dipole_moment: 2.396
 S          -0.74912196544660   -0.61711309397272   -1.82011163606039
O           0.46950870547625    0.11925666337365   -1.51849699635724
O          -0.63774927928444   -2.03336255297816   -1.55726993840647
O          -1.91482792351072   -0.01944526223760   -1.18030376077669
O          -0.96050335651935   -0.45782987763444   -3.38185217908068
H          -1.60927785577581   -1.12714089963868   -3.57334141059214
O           2.35913848360620    1.36107957512803    1.39990162174924
H           2.40377433404033    0.46174431728122    1.03065098661450
H           2.49910388934792    1.95906827053049    0.66252766146648
O          -0.23911418366842    1.86167901175772    1.90984603286175
H          -0.39739895956088    2.26960052806151    1.02965050597877
H           0.72692407867420    1.69710551302500    1.93138111311058
O           2.25406624278802   -1.01387178022422    0.01376505354264
H           1.60224696352655   -0.60877509876426   -0.60854872959551
H           2.93362662223706   -1.41458263642777   -0.53029364522234
O           0.09681901338692   -2.41093289216202    0.96786452437198
H           1.00064818082658   -2.06209163117938    0.89254741577899
H          -0.20692603165479   -2.48901924226112    0.03905953339908
O          -0.60568616303542    2.42049523965685   -0.69159424860612
H          -0.09139170159753    1.67171858402246   -1.04877294291025
H          -1.51519497968780    2.20309278876045   -0.91438563945258
N          -1.49818312288277   -0.35946654891683    1.40954037212544
H          -0.97161159506212    0.53094655711432    1.72279760074368
H          -2.30616661822146   -0.52643156119008    1.99930549066597
H          -1.79087932831987   -0.21320224672515    0.41026002217342
H          -0.85182344979141   -1.20252170400797    1.40587320251009
