    26
        -50.46908013  Gyration_radius:  2.47004437697 Dipole_moment: 2.398
 S           1.44336774546800   -1.42754982538440   -0.87620880029302
O           0.51500588913086   -2.22937450646856   -1.65007463621137
O           1.56457390664386   -0.07464408868727   -1.37317407521987
O           1.17759738744372   -1.45347385711169    0.55843543558430
O           2.85859302511878   -2.12874433393546   -1.04789991639784
H           2.79712614500293   -2.45803024285388   -1.93779083047788
O          -1.48837415957385   -1.58228853938186    1.08761575750174
H          -0.53021315591102   -1.71987704055510    0.98302524521114
H          -1.82004189425376   -1.45913306145922    0.18882888110755
O          -1.59181555919784   -0.75090694229338   -1.61119578311335
H          -0.76035032267068   -1.29318299203270   -1.64774184246845
H          -2.04664381689300   -0.92292931812173   -2.43782825625633
O          -1.56635577113338    1.74253188967548   -0.57156141366466
H          -2.24500564845131    2.20424726285858   -1.06582085863686
H          -1.50289723500893    0.84222663277337   -0.95746353927056
O           1.14664097625240    2.33283414863497   -0.36539504091275
H           1.43048197772220    1.54982498031450   -0.88176782317379
H           0.18535716942315    2.36753111490258   -0.50059249391401
O          -1.52051204252449    0.88308054229279    2.08361925661129
H          -1.64770180043485   -0.07310614144297    1.87311625880357
H          -1.70609966559895    1.34413745358774    1.24973848241684
N           1.08459192942824    0.86895944486467    1.80946827683130
H           1.22910054341275    1.58401594093401    1.03182538174401
H           0.05379082217565    0.91854467737339    2.09226868924918
H           1.23187830096670   -0.07795065135541    1.37187069388912
H           1.70790525345618    1.01325745285420    2.59470296105401
