    26
        -50.46605420  Gyration_radius:  2.57788471857 Dipole_moment: 2.972
 S           1.67345503760526   -1.30403363197589    0.49899601205928
O           1.31766530143293   -2.69611690383569    0.59145176194994
O           1.09224061452198   -0.64669067859915   -0.67475265719522
O           1.42150359434079   -0.51238617548635    1.69274122137932
O           3.25098526449352   -1.27151441205889    0.27849007866311
H           3.43035763945699   -2.16681062866049    0.00921297173673
O          -1.16820107868699   -0.66355898385813   -2.25083705403287
H          -0.30259207901702   -0.85016359113687   -1.85201452332799
H          -1.79437116497567   -0.68624340988030   -1.51316193182799
O          -0.90705824329315   -1.83099832726953    1.76795207373802
H          -0.24326127524167   -1.22776299504871    2.13569674929487
H          -0.35526706820632   -2.47687175367113    1.29550474992798
O          -0.89868708504642    1.94868663619257   -2.74529541207791
H          -1.09316017944611    0.97940804188739   -2.72538204829400
H          -0.25129887857507    2.07416058488721   -3.43985782322423
O          -2.42867388951040   -0.29853169221475    0.27399461638553
H          -3.32615009795363   -0.34271668807666    0.60576617268214
H          -1.89787803791716   -0.93141316201647    0.82614397823571
O           1.12111443359100    2.11278960413199    1.96619424461669
H           1.26882490770684    1.14133503079390    1.97047811321959
H           1.97379462893527    2.50999751600604    2.14633402285759
N          -0.38393948208329    1.46308005059771   -0.16273899261828
H           0.27446577074014    0.65478305975205   -0.35514790646752
H           0.03954065551668    2.02999401953503    0.59019407689197
H          -0.53710033918175    1.95827567789859   -1.06548984982673
H          -1.27630894909123    1.03330280233355    0.13552732544349
