    26
        -50.47168680  Gyration_radius:  2.49107366122 Dipole_moment: 2.994
 S           1.29291107393905   -1.75595240097978   -0.73998038611560
O           1.69292718596029   -0.40842997679592   -0.34122565697570
O           0.79430155360577   -2.50179486335835    0.41045611073706
O           0.39816929698526   -1.76320748241400   -1.86924717031640
O           2.61309842518529   -2.49771220502445   -1.19881759146652
H           3.08576367658072   -2.56285913991787   -0.37625268352073
O          -1.63407823892655   -0.17232002031701   -2.04667698613999
H          -2.21292382608870   -0.50489479090785   -2.73397911450009
H          -0.88492963934355   -0.81855186900473   -1.98474663022614
O           1.26721729597292    0.97764511793083    1.92584469953922
H           1.63743688446536    0.54944579327742    1.12945137419383
H           0.72942322501942    1.71456358611290    1.58322018503439
O          -0.48007682635143    2.61023259230593    0.56579841822916
H          -0.08651853422630    2.29872775857693   -0.30143611236104
H          -0.55132634337170    3.56282926384813    0.50343067388940
O           0.48391604042698    1.59670750599113   -1.62846849281298
H           1.04122337205094    0.88096083863126   -1.25969624223435
H          -0.27707727281955    1.14307761115545   -2.01949559310249
O          -2.25617028044382    0.50650635815420    0.51434378146372
H          -1.78716820390512    1.35708714568887    0.59189533181311
H          -2.15107024230536    0.24113408965560   -0.41941833314452
N          -0.56018390176846   -0.90615301521941    1.96196276126475
H          -0.90955508800927   -1.32764340823621    2.81487037750698
H          -0.07432273792587   -1.62697666963188    1.35318369861855
H          -1.33966937191556   -0.43892769450137    1.41032650778026
H           0.16868247711087   -0.15349411498994    2.15465709283300
