    26
        -50.47090410  Gyration_radius:  2.51647305973 Dipole_moment: 3.618
 S           0.43248823452437    1.28833969943637   -0.98202107028251
O          -0.98170310158639    1.54201153168672   -0.77228882031436
O           1.17075178197816    1.35282257261797    0.28624996335605
O           0.67779733349689    0.02851389165583   -1.66356572232411
O           1.00281693650671    2.41133896980076   -1.90536443996282
H           0.79249310036191    3.21505539503449   -1.39267824341735
O          -1.18718859992974   -1.86146956766400   -1.81230296113255
H          -1.71515238829704   -1.79952686770126   -2.60952337684104
H          -0.55559423645933   -1.11025202064896   -1.84399651556381
O           0.07437476984222    3.84937962302665    0.10854063033513
H          -0.71132620425247    3.31094968687584   -0.07067608377615
H           0.63931028615736    3.27937489402730    0.64573141498358
O          -1.02045927296820   -1.16295377708094    2.58629742386527
H          -1.54917128329081   -0.98680433073770    1.75662526526274
H          -1.32073211593194   -0.51466040047062    3.22487465993331
O           1.47163071797834   -2.36766295693909   -0.74995511149058
H           0.63746167323703   -2.80467664921598   -0.95772361876967
H           1.42744258056156   -1.52485187862128   -1.24159725778266
O          -2.22100575631051   -0.54323787031358    0.36148313374403
H          -2.02694485570795   -1.20010019839486   -0.32922541823019
H          -1.86610705300830    0.29511350844986    0.00433256255618
N           1.38052117014687   -0.94979856064028    1.49232144261911
H           0.46911827831886   -1.08495519358561    2.01324348763221
H           1.45147405176422   -1.64984250707805    0.70296125779723
H           1.34998589392218    0.01126506898334    1.03348320064377
H           2.17771804892540   -1.02337206252374    2.11477419716391
