    26
        -50.46814443  Gyration_radius:  2.48641808244 Dipole_moment: 4.358
 S          -1.03278518409734   -0.53605327007992   -0.76511438678306
O          -1.34431704267150   -0.42287270052064   -2.16704428316650
O           0.22174912383209   -1.26630475196271   -0.54098974998578
O          -0.92986918709135    0.79421587928519   -0.12166023929588
O          -2.17345268340442   -1.29183777287728   -0.06915439742130
O           0.91150438569807   -1.69935476428928    1.94171856196057
H           1.04156234438321   -2.64200099838018    2.05843407116660
H           0.62612969014834   -1.57750862749965    1.00336543582492
O           2.65453159845134   -0.28204923767730   -0.08337724958171
H           1.86962751496702   -0.78774008194581   -0.38422849500728
H           2.67150691540403   -0.41391716411920    0.86981744367221
O          -1.90096636839960    1.57837944250797    2.22308148888449
H          -1.52366687727249    1.38897393897079    1.33880922231768
H          -2.79847136179423    1.87889860603905    2.07132115091474
O           0.68012258393914    0.59308568972672   -3.43232990803285
H           1.19721105566231   -0.17043221938647   -3.69659623270909
H          -0.16533679968101    0.22424418625643   -3.06513973450347
H           1.15487554436189    1.40301332084618   -2.12355660733186
O          -1.68377689288439   -1.09767009291036    2.42707026085428
H          -2.01364728621190   -1.25416379946482    0.93458121638063
H          -0.72423934792371   -1.27694465079289    2.48019712772179
H          -1.78628092168596   -0.13537040884101    2.58075907091937
N           1.26106575077379    1.71639960191975   -1.11784593055386
H           1.99453082082390    1.11448812642247   -0.66418593093298
H           0.33050233813368    1.45513738453997   -0.65456240787655
H           1.46189029653604    2.70738437423308   -1.04336952742970
