    26
        -50.46719867  Gyration_radius:  2.55622155171 Dipole_moment: 4.039
 S           0.39597955141901   -0.95658479444854   -1.56491897975471
O           0.98949007511947   -0.99291788434117   -0.22871324819887
O          -0.88275601436554   -1.63822883028522   -1.58654772928562
O           0.35330967830461    0.37863215018037   -2.11878656054804
O           1.37917587364481   -1.77873366434068   -2.49560538765477
H           1.38767918203206   -2.64540468726751   -2.10143895788081
O           2.25751738302802    0.98297503849346    1.23873935228575
H           1.98597058932029    0.16610369195816    0.79165951565914
H           2.20428783087286    1.66021530942040    0.53911441862544
O           0.33155594808627    1.40921473503478    2.98565678714157
H           0.64555016844419    1.10559093085151    3.83810783219599
H           1.11387274400367    1.36139293718783    2.37258957851526
O           1.80872025347596    2.36924444364753   -1.05112180619768
H           2.41978304566728    2.66659944110882   -1.72643191633495
H           1.26266000004761    1.67349007054370   -1.46572158597853
O          -2.25644006353546   -2.34243535794664    0.59523447022300
H          -2.84202247775723   -3.07223815747354    0.39242879756862
H          -1.75841652189947   -2.15196688461786   -0.22746807859664
O          -2.04212124933658    0.92130047922329   -1.08665225085379
H          -1.19523011552549    0.92679442993517   -1.57194021139513
H          -2.50346400552233    0.14519583582947   -1.41728320880339
N          -1.02554621640077   -0.02879141277071    1.20497425947027
H          -1.51339988180414    0.53477204479782    0.46828667804789
H          -0.18999976455792   -0.45197741401441    0.73038424595311
H          -0.68577620805473    0.55913704233035    2.00517613538800
H          -1.64037983470282   -0.80137949304579    1.48027785041108
