    26
        -50.46705286  Gyration_radius:  2.47029137975 Dipole_moment: 4.744
 S           1.11133860918937   -0.08478859867249   -1.86994750330449
O           1.96221469700136    0.68602769175335   -0.97035343045952
O           1.08571140378189   -1.49383874804429   -1.48726451389464
O          -0.20037300219334    0.48793553398019   -2.02738869000918
O           1.81383667448775   -0.03578737380788   -3.28771810765576
H           2.64007706692709   -0.46885727557234   -3.10166863406269
O           1.89697077591469    0.55982780485317    1.67365192018292
H           2.04698532174688    0.47589903514994    0.70807219297213
H           1.65947187094836    1.48373724384971    1.79739239571008
O          -1.73827452019933    1.18623300492971    1.32039724567516
H          -1.29032851382849    0.52246262874446    1.86003727111973
H          -1.03249471625825    1.72857076951245    0.91410530358774
O          -2.50041399513486   -0.18308877406127   -0.82321768800422
H          -1.82547071905467    0.14944151609364   -1.44564670056190
H          -2.43299340697256    0.41563978871660   -0.04047166286953
O          -0.12947083364655   -0.91125373261361    2.41009751569017
H           0.06675637114475   -1.26599406092765    3.27786388317154
H           0.67453161373000   -0.38801544831270    2.13545245275709
O           0.23062943914445    2.49768139271698   -0.03980432891518
H           0.87838531588251    1.87550028182255   -0.42708667730008
H          -0.28263891451977    2.80927917570555   -0.78809678915001
N          -0.93350891105015   -2.03960523669106    0.05549010101633
H          -0.66310201683449   -1.75070547560798    1.01448500936875
H          -1.24094113948835   -3.00506653823292    0.03273001880994
H          -1.70175753376585   -1.35824368256905   -0.30701227259788
H          -0.09514093696701   -1.89299093273396   -0.58409835129324
