    26
        -50.47033154  Gyration_radius:  2.48356063055 Dipole_moment: 2.315
 S          -1.82832414759310   -0.50882793781610   -0.83036229020981
O          -1.91938065398162   -1.80496094674507   -0.19861677172465
O          -2.17662524894924    0.57998440049964    0.07452031593390
O          -0.54883177206688   -0.27899389122504   -1.48481005531585
O          -2.90442856453279   -0.49138191458073   -1.99259018707943
H          -3.66852749380776   -0.87380813845102   -1.57365338990318
O           1.47148340060589   -1.79313938988573   -0.82422619509046
H           1.56488908992671   -2.49551106925122   -1.46947184039551
H           0.69477696671216   -1.25350261103537   -1.11088215207831
O           2.98677848854370    0.48569320513751   -0.55774331952851
H           2.56261484676721   -0.39023908442934   -0.58318867325922
H           2.84069001060003    0.87887496416962   -1.42082041056314
O           1.41774978579233    2.04044981002082    0.98667057828141
H           0.86468153576796    2.35175032490367    0.23589963806997
H           2.12754146775881    1.51173035027853    0.56534507508010
O           0.08356886094227   -2.10166111526097    1.52120914830517
H          -0.72964944980618   -2.17711730809816    0.97892497111295
H           0.80555071145023   -2.14574741536231    0.87244749795695
O          -0.30189616908250    2.34554019630928   -1.05336618255007
H          -0.30873733424588    1.41604330399823   -1.35112912031099
H          -1.17726940290074    2.47330032554686   -0.67688926034441
N          -0.37156624236053    0.44968901082111    2.00362545971020
H          -1.16467303249312    0.56469761974025    1.32289329086372
H          -0.08413441356238   -0.57148107224834    1.95038262868379
H           0.43021929603455    1.09509454379741    1.67302441530446
H          -0.66650051581775    0.69352381929528    2.94280685919560
