    26
        -50.46794347  Gyration_radius:  2.46409710944 Dipole_moment: 2.601
 S           1.09428306016529   -0.49523977607116    1.39905870230214
O           0.94163657848411   -1.91879732995367    1.20525882118101
O           1.55449056011766    0.21417140994774    0.21507392018470
O          -0.10701086744332    0.11965624595561    1.94842469646167
O           2.24227002759385   -0.30616242320059    2.47286130071226
H           2.05385287988619   -0.99350103898629    3.10350318772571
O          -2.05344401584094    1.80287215802373    1.17427412863560
H          -1.34269966214203    1.33331099607194    1.65095677047133
H          -2.81861609672044    1.22442289203518    1.22417637694145
O           0.88593337728884   -1.98145036750320   -1.46857795146001
H           1.54352866239245   -1.30524147564291   -1.64736962124851
H           0.91530109664154   -2.10713797204576   -0.50054643546732
O          -1.58658667491041   -0.98384144219995   -1.81602805899602
H          -1.92249301379796   -1.24606787520237   -0.93487379310126
H          -0.74154091054201   -1.47458717318368   -1.90306722291024
O           1.95974865659826    2.31202173202496   -1.59659942448321
H           2.79343056590620    2.78264894715063   -1.62611718547706
H           2.06217916297573    1.61320301798962   -0.93471583573646
O          -1.86366063656534   -1.54474197281471    0.82047193995858
H          -1.43572995103576   -2.40188070117412    0.89207182875025
H          -1.26635839811035   -0.93740680364439    1.29733655449930
N          -0.59295059671902    1.28276759733335   -1.01370895176022
H          -1.24192873862128    1.68849732164753   -0.30131419883424
H           0.22934016749623    0.89562834456612   -0.49814005857161
H          -1.06555235987217    0.44722999268838   -1.49689254869764
H          -0.23742286323422    1.97962569617039   -1.66551690106983
