    26
        -50.47395398  Gyration_radius:  2.40830212651 Dipole_moment: 3.046
 S          -0.52537340017031   -1.09375266866474   -1.27666313491752
O          -1.25737077130523   -1.03737581696681   -0.01809233204788
O           0.16639121684796    0.17579232837232   -1.53070064882706
O           0.38044707329351   -2.21900370586879   -1.33370909478830
O          -1.57591897139128   -1.26741138465414   -2.42806146649541
H          -2.04177493047010   -0.41723551924747   -2.45373341388097
O           2.20971633836793    0.86061850597585    0.03377709410546
H           1.54308866619768    0.73226231091511   -0.67198783982536
H           1.71159220129760    1.26564095215629    0.76493783055865
O           0.38139464736441    1.60285097066321    1.96727285049884
H          -0.45744599673715    1.63180572015211    1.43835204240383
H           0.29683999331821    2.28168198742890    2.63785619616651
O          -1.95474469057232    1.43567808510903   -2.25700958646485
H          -1.05274121323249    1.13039179227312   -1.99592332009272
H          -1.85137286077531    1.94143655351319   -3.06519124693230
O           0.09618442591554   -1.13318844637129    2.29564370408499
H           0.21005448413130   -0.17012144697563    2.39170221020108
H          -0.56156161858662   -1.22807366500360    1.57796800923036
O          -1.87635128754735    1.45617927708924    0.61193423435234
H          -2.07461099282105    1.84186759240088   -0.24832511056617
H          -1.77282953678556    0.49738301157951    0.43299576661625
N           2.03589467144016   -1.68305089767450    0.63304023369847
H           2.32706637195384   -0.68287138818210    0.40248236373990
H           1.47079794871917   -2.02847867504881   -0.18974031369139
H           2.82259574490916   -2.29000527322715    0.83335446642592
H           1.35003250664101   -1.60302018973453    1.44782049645217
