    26
        -50.46279194  Gyration_radius:  2.60237658348 Dipole_moment: 2.752
 S          -0.96385649408245   -1.04084573159043   -2.13314489044039
O          -2.18947239085514   -1.45152279813071   -1.46662558647886
O          -0.92470548502706    0.39291261928513   -2.38006815010543
O           0.22867045359879   -1.52496087926422   -1.47362684429860
O          -0.99599294100395   -1.73131528452130   -3.56493025361689
H          -1.84800804249640   -1.45279943195073   -3.88402759621276
O           2.19923646918442    0.03963794101053   -0.80688752823294
H           1.59543794642467   -0.57357533169689   -1.28570447047875
H           1.75165288238820    0.90281489773730   -0.85938637034067
O           0.98605143653494    1.09329255757344    3.11116714561348
H           0.17361918124840    1.38644393150381    2.61368866004966
H           1.59930176195968    1.82857843509748    3.07358200672348
O           0.34780288486715    2.04544549486572   -0.88914988271595
H           0.30460010666385    2.88618955414591   -1.34712735399730
H          -0.16835241455419    1.40672724151595   -1.45922292969797
O          -1.47229082269516   -1.05407181493922    0.94381630931016
H          -2.06518140579966   -1.60043079579695    1.46360002746751
H          -1.74107022611682   -1.19956116789056   -0.00852727841290
O          -0.98058526030245    1.63286102062600    1.46694838603146
H          -0.53160356293485    1.88298877224984    0.63749344588334
H          -1.35364551572548    0.75381830798567    1.29423992829671
N           1.21949305763046   -0.94069147403826    1.40798774225861
H           0.22506646193119   -1.10808289116545    1.13859864450348
H           1.65244506404595   -1.80951376524396    1.69966778557211
H           1.71744366552831   -0.54848273540124    0.53548541296017
H           1.23394317958872   -0.21585669196009    2.17215364036037
