    26
        -50.46276875  Gyration_radius:  2.52138179748 Dipole_moment: 7.617
 S           0.32180110282858   -0.40984360901304    0.62186781196498
O           0.44395648834411    0.00981287286346    2.09246859087995
O          -0.96134176593968   -1.06025200519088    0.41295721020064
O           0.47031517775509    0.78652232938043   -0.21313101651116
O           1.44431274296110   -1.32281749560829    0.37213424432028
O          -1.27899301807154    2.69003774214201    0.34583278313021
H          -0.77710414040837    3.50655722563335    0.34294277092665
H          -0.65916948938999    1.98293675640151    0.06350903229441
O          -0.16173999460257   -2.09286418041180   -1.88854227197417
H           0.46884603031126   -2.72958217311100   -1.54575981058912
H          -0.61039379045644   -1.73941652292043   -1.09383298929194
O          -3.16343137672472   -0.69728843151916    1.87210945291662
H          -3.22599949290497   -1.48125522102650    2.42008580044872
H          -2.44553538846304   -0.87162698832685    1.23004389333970
O          -1.61887723314029    1.35198231858360    2.64412269856353
H          -1.65345588216452    1.96535210040984    1.87941937310786
H          -2.33432281611607    0.69881934469528    2.48461869232650
H          -0.38212116359330    0.56670225759005    2.36722028194239
O           0.82143286597734    0.22341896439164   -2.77742004674574
H           0.38129403670784   -0.65360545412242   -2.74848364772130
H           0.48233243670095    0.66629362382927   -1.97273832673217
H           2.15323526128648   -0.05005571926743   -2.12763978687461
N           2.93360955690520   -0.27652462059207   -1.39464381255885
H           2.36057909027010   -0.74819359053244   -0.57874989843860
H           3.34427133324937    0.58518684638247   -1.05062234980583
H           3.64649941867828   -0.90029635065187   -1.75776867911550
