    26
        -50.47132487  Gyration_radius:  2.42067704011 Dipole_moment: 3.208
 S           1.07523431681962   -1.33594794160118   -0.93677338012575
O          -0.27151337838772   -1.39682475863222   -0.40133210900245
O           1.14112348284718   -1.08633767561642   -2.35629952623608
O           1.92926327360710   -0.44331383042532   -0.15901552990511
O           1.66960929269789   -2.80024366210684   -0.71643115813707
H           2.36857931239217   -2.84390647543862   -1.36069463162561
O          -1.22039079026037   -0.02580471635356   -2.73529071663474
H          -1.73433690481132   -0.69291439244502   -2.27239833742027
H          -0.30386887415018   -0.38159707238470   -2.73743039923609
O           1.05791720365740   -1.55794363588776    2.03630635173106
H           1.57762956032439   -1.16857722148665    1.29934397191751
H           0.42641800515463   -2.12524585976162    1.58181183933130
O          -1.18961524970510    2.06022996178993   -1.14978264979673
H          -1.16458349227550    1.30974853407160   -1.80401086511972
H          -1.44330575967557    2.83835681460974   -1.64794676723368
O          -2.12048889119869    0.21869629427835    0.68355230955212
H          -2.02643169982814    0.97726798565473    0.08356073997433
H          -1.56821310700830   -0.47936783394049    0.27813973421624
O           1.03435888294565    1.98194898844614    0.47495113285826
H           1.50508195344873    1.17961542421779    0.16639927116917
H           0.30686393148279    2.11685354573201   -0.15978057373079
N          -0.21627063709999    0.74428700325340    2.40926511005547
H          -0.35396949685660    1.15460029439096    3.32491522850812
H          -1.12611312906901    0.56285198682584    1.89041381419298
H           0.35195052286902    1.37290145711894    1.75330924241281
H           0.29507166214148   -0.17933323426454    2.45521787828163
