    26
        -50.46947351  Gyration_radius:  2.51592140983 Dipole_moment: 2.548
 S          -1.38399131427850   -0.91878444815206    0.08581877760823
O          -0.07753668770150   -1.41887076321202   -0.36129685491530
O          -1.20563190189807    0.30921126901287    0.86718979616525
O          -2.30387854227021   -0.76192311666172   -1.00671241765227
O          -1.97278703766642   -1.99423555570249    1.06163413379595
H          -1.44277075193228   -1.90513406367728    1.87002458262223
O          -1.72153222941598    0.23317797311837   -3.37426668286285
H          -2.29335657281887    0.99818870948616   -3.46104686418987
H          -2.03445694657903   -0.23916891882149   -2.56829053402758
O          -0.50029419859629   -0.87103697347923    3.03824458240759
H          -0.71656183146770   -0.24051840005741    2.30701932525066
H          -0.96569512949872   -0.56078459378389    3.81717483994409
O           1.83012815471935   -1.14675934900188    1.49152982908851
H           1.28394101244486   -1.15123724829440    2.28722410801360
H           1.21123599817127   -1.35449410035358    0.76387355079159
O           2.59612406809272    1.33550656918743    0.90147865233139
H           2.38070000950076    0.39232626224966    1.10120964481857
H           3.03947952086335    1.67894950526535    1.67758354920702
O           0.34779320760686    2.15924116389577   -0.29597600327626
H           1.18909721765574    2.02822498296144    0.19262062379800
H          -0.31441085061002    1.62480619490585    0.18750358466597
N           0.63757030774364    0.36307020647376   -2.14612774637033
H           0.46852618328080   -0.46178030941560   -1.50958429995262
H           0.58636589972044    1.22216138432676   -1.49325342270511
H           1.53198757896244    0.29193942719501   -2.61863489339594
H          -0.17004519401775    0.38792422250660   -2.81493985115384
