    26
        -50.46936652  Gyration_radius:  2.58156674356 Dipole_moment: 2.053
 S           1.54559194348135   -0.34655631788082    0.14722533072735
O           1.02604143724092   -1.67990325640414   -0.16740018543220
O           1.36317939373548    0.56186798858624   -0.97681698554184
O           0.95417534203847    0.17839765633887    1.36506983303565
O           3.07532099344651   -0.48657313367827    0.41512658819157
H           3.37982535419807   -0.98440319321143   -0.36789301565083
O          -1.33264745741452   -0.77982022604403    2.30021961817983
H          -0.43847718854799   -0.48802356928691    2.01187366250928
H          -1.19064926829841   -1.47425181115361    2.94478885785665
O          -1.95219561347910    2.87905936195889   -0.48028527979232
H          -1.63024559476339    2.63375200662511    0.42576956343613
H          -1.48062964827101    3.68060941975714   -0.71267176543610
O           3.14270882475767   -2.18963608460596   -1.61109344321178
H           2.23313824769781   -2.16493999885255   -1.24747096054430
H           3.48492381739599   -3.06817862671413   -1.43110700577799
O          -0.91685673121227    2.08351438278715    1.80615276156477
H          -0.09783069145237    1.58702154986606    1.62291052487409
H          -1.49057373906665    1.44488303529018    2.24313125652737
O          -1.62681633453998   -1.52695373262390   -0.29874883226139
H          -0.67663416132097   -1.76830225586146   -0.30080616858884
H          -1.80625641175814   -1.29223177235644    0.63107800373732
N          -1.13086109197682    0.64715184905723   -1.68698769083418
H          -1.30146680761471    0.57705380916126   -2.68400791874277
H          -1.54509875688460    1.53005489822396   -1.28934815323378
H          -1.50425314470505   -0.21009645343424   -1.17575511372519
H          -0.08341273264898    0.65650447446168   -1.48295347192657
