    26
        -50.47090396  Gyration_radius:  2.51663538683 Dipole_moment: 3.622
 S          -0.70869492835502   -1.30687624486678    0.77712199180874
O          -1.83178145342478   -0.39408588295091    0.65971186000788
O          -0.22095782329349   -1.71143972355645   -0.54818806287521
O           0.36999690246356   -0.76282875807877    1.58472645815941
O          -1.19861297831167   -2.60012557037984    1.50280049871457
H          -1.91979371967135   -2.89567796771701    0.91473536815882
O           0.52984077672019    1.83707588159665    2.11933124313457
H           0.09997723461770    2.07304064426647    2.94257914675179
H           0.39015285280713    0.87173994748022    2.00542172925296
O           2.71761443432187    0.35236467382179    0.91050071554213
H           2.04367642780950   -0.23939950279484    1.29713855214485
H           2.47818385778027    1.22694139964622    1.23896386666804
O           0.28677835540650    1.89453392979845   -2.32869078917201
H          -0.37080103537219    1.79060725078400   -3.01784055884031
H          -0.22904477625641    2.04886361873105   -1.48679278628731
O          -2.81772957131263   -2.56050893125775   -0.58561390450947
H          -1.99785728295016   -2.52694393268832   -1.09480147899367
H          -2.94675631695934   -1.65154251395485   -0.27508389027261
O          -1.06025056893869    2.05260458613308   -0.10686450446492
H          -1.46230916149500    1.18904242556052    0.11438301619903
H          -0.46698493214997    2.24001766565414    0.64093492729760
N           1.68140250948373   -0.18661652448464   -1.47351836533397
H           1.19616449864177    0.65343096408590   -1.89649036718115
H           0.92677647223442   -0.85870890603305   -1.13579157697943
H           2.28946234523365   -0.64096366382339   -2.14599330652086
H           2.22154788097618    0.10545512504421   -0.61267979241031
