    26
        -50.47392083  Gyration_radius:  2.44008542477 Dipole_moment: 2.168
 S          -1.55093278020937   -0.99084910182367   -0.59012910236921
O          -1.73415316739883   -0.03840294359030    0.49670254975579
O          -1.81726549132287   -0.41827810473283   -1.88946021800794
O          -0.26097505267656   -1.65570549720684   -0.48614542032645
O          -2.63772452317037   -2.12314891578304   -0.38694983854794
H          -3.34566062714732   -1.77198774974882   -0.91456088382409
O           1.79464538670017   -0.33682283026128   -1.75375091297015
H           1.11791245895185   -0.95364898648355   -1.43032688397234
H           1.29743688673242    0.37503103018280   -2.18669047544124
O          -0.85754918622833    0.14044053574046    2.99074258198594
H          -0.68308736645709    1.08133491255832    3.07385656270022
H          -1.36421940781054    0.04514666086128    2.15680158804671
O          -0.14452644295928    1.50026919925771   -2.51075819707091
H          -0.38518804153232    1.87833654834214   -3.35780525531261
H          -0.81079413912644    0.79810110202981   -2.32066135702305
O           0.02766963709079    1.98972914630230    0.22503052990212
H          -0.66190503145879    1.31442811835811    0.36087676595616
H           0.04408837681331    2.12775465947436   -0.73296056442828
O           2.39413151036888    0.79107228788515    0.57974464344643
H           2.42032545651519    0.40604578596001   -0.32808744498950
H           1.63294942289313    1.41383087802486    0.54493469126027
N           1.11662803018934   -1.13939543218338    1.71625989248885
H           0.43700446759044   -0.70981742824158    2.38968147376670
H           1.64034035148364   -1.89848565946263    2.13618957064139
H           0.56402238606437   -1.47359808553568    0.88726361384866
H           1.76682692608977   -0.35138011997885    1.33020208047872
