    26
        -50.46276872  Gyration_radius:  2.52138367929 Dipole_moment: 7.618
 S           0.14310914757990    0.27364716791233   -0.74966540946443
O          -0.84983151756552    0.51019602168298   -1.89500819553608
O           1.23797974527233    1.22768926042903   -0.96656206729004
O          -0.53018368170027    0.58266610775328    0.51593715660421
O           0.60781043216322   -1.10298297891627   -0.79377372122252
O          -0.69302123022241   -3.17090190372457   -1.86284867399599
H          -0.24703930271878   -3.33573041273672   -2.69518846843206
H          -0.14679724962643   -2.51170598550342   -1.38853207077856
O           2.65053826906793   -0.55560923409479    0.79671165482731
H           3.16591673788877   -0.02398184991431    0.18650715644984
H           1.92051629591087   -0.91516468516799    0.25296669256608
O          -2.73570313082795   -0.82353659475545    0.90696118475107
H          -1.88861921683084   -0.33314133101079    0.82987788954237
H          -3.37989891356049   -0.19908879122504    1.24410116356397
O          -2.60261246491315   -1.29566528356661   -1.72870006309330
H          -2.81933862345250   -1.25774355850286   -0.77279445034207
H          -1.59221655683724   -0.20830305044055   -1.86864745865273
H          -2.06640512556803   -2.11055748876328   -1.84024179927851
O           1.14041832461085    0.75423164311656    2.56466345765070
H           1.83561867544884    0.18129516721939    2.17456733735405
H           1.30899180910012    2.04646583073741    1.80765174843230
H           0.34389608354905    0.51654067726696    2.04738002150176
N           1.31263819476982    2.80470722067517    1.01872998873597
H           1.28615361158878    2.19147916253622    0.10231908835766
H           2.13510184027097    3.39797808164677    1.04605834320320
H           0.46297783660946    3.35721679735331    1.06752948455127
