    26
        -50.47117865  Gyration_radius:  2.50403981868 Dipole_moment: 3.661
 S           0.67484153239798   -0.32183231138476    1.47045510946664
O           0.55504775505631    0.91445117231351    0.67865940268813
O          -0.63842540338615   -0.96480269316881    1.55040963175272
O           1.69196207925234   -1.19034224820540    0.93562983904511
O           1.10272285623363    0.09838367177421    2.90748257296655
H           0.33268220135970    0.59040722475995    3.25545258909797
O           2.98118647218455   -0.88179743909984   -1.40646973333193
H           3.92882358351727   -0.90456402570284   -1.27053279780532
H           2.58093360408274   -1.02261062360321   -0.52415689148850
O          -1.37722242803245    1.02489154123074    3.14785693236723
H          -1.42530486659864    0.18733055887017    2.65320888803436
H          -1.68310525072172    1.70844460110168    2.54393057974539
O          -1.60554469029183    1.49441859120700   -2.53396309418960
H          -1.64550145996955    2.42556677331020   -2.75520241706599
H          -1.90501260349354    1.42067120475055   -1.59971146558304
O          -2.01361207018076    1.18059048425812    0.11775102033739
H          -2.31563708003005    0.29166412405266    0.32540524001779
H          -1.06381984794269    1.18977253272294    0.36896688284295
O          -0.37683961157234   -2.31610548579803   -0.70700492968503
H           0.42646797375598   -2.81998602024814   -0.55050058168668
H          -0.59710521385704   -1.92694990631692    0.16598766913927
N           0.47725589112865   -0.02710429184419   -1.79210597562804
H           1.40719875198939   -0.16232860689039   -2.20058356207696
H           0.07524379883392   -0.97201343764020   -1.55437588332681
H           0.60632584485469    0.45598284718145   -0.86551988624579
H          -0.19356182855870    0.52786178235933   -2.36106914938616
