    26
        -50.46534027  Gyration_radius:  2.51064516923 Dipole_moment: 1.091
 S           0.27041517903697    1.47958108165651    0.69408939825997
O          -0.14857974673777    1.04510147892737   -0.62577384651365
O          -0.63925184074719    1.11510168147248    1.75017019421297
O           1.64851517964437    1.06916527731160    0.96700525976492
O           0.28621749405267    3.06598084546770    0.64340989694924
H           0.08566122146536    3.29481970678000    1.54505026747326
O           2.90846465255680    1.09679225622830   -1.40273632397386
H           2.53057950525952    1.15312914110137   -0.50273022647295
H           2.68743974653745    1.92483659725818   -1.83178247786622
O          -0.86472469180546   -1.54869216909712    1.77352348110845
H          -0.87815359125059   -0.57929039870657    1.90794616775308
H          -1.62542154232060   -1.73837640335182    1.17694956477693
O           1.16730525796863   -0.90784577298251   -1.94729363410787
H           0.48782279363725   -0.26076926509575   -1.68691168215784
H           1.97179967396075   -0.35875898264990   -2.01901900647426
O          -2.96828380939231   -1.76427684093330    0.13772133472426
H          -3.78212902391494   -1.74544155353013    0.64383819628967
H          -2.91315258018040   -0.89389617618595   -0.31697909988419
O          -2.72997714114575    0.63839420595175   -1.03593880652166
H          -2.77547045105811    0.62498513898271   -1.99405269594338
H          -1.80082782676885    0.85888209805768   -0.81410709933881
N           1.43675717231377   -1.54529042475730    0.59075876916579
H           1.33644055626323   -1.51659543192800   -0.46850595183484
H           2.12830910141075   -2.22403464655947    0.88974081867512
H           1.70364295609804   -0.57174516252485    0.86682944661528
H           0.47660174510891   -1.71175628089406    1.05879807532501
