    26
        -50.46609695  Gyration_radius:  2.61561568481 Dipole_moment: 3.193
 S           0.71973103811947    0.02494842979416   -2.02226998653204
O          -0.56256342226793    0.52327335035314   -2.46711578413526
O           1.51076543562935    1.06121162591515   -1.36093665602990
O           0.63470161009854   -1.18133789636068   -1.21754880802513
O           1.51117395528900   -0.37595876593572   -3.33710355208495
H           1.12377814030059    0.21141647989629   -3.97735080387107
O           2.60737277688818   -0.40327135602979    0.57873059790934
H           2.39425547760032    0.23324631628548   -0.13006511812199
H           2.27007253031005   -1.23666698849061    0.23579183813617
O           0.74278914110999    0.57070823300762    2.25456980631396
H           0.60457402910032    1.43371554037606    1.83052479226930
H           1.54559531459971    0.20392426353248    1.82090605885529
O           0.29346269370166    2.58373377698314    0.38882957332398
H           0.67617994283783    3.46042990378903    0.33378344703420
H           0.75519119997484    2.04173422318755   -0.29642347815907
O          -2.23887678392513   -3.08828360149588    1.73005388610341
H          -1.97030742570629   -3.47443178596364    2.56613531541726
H          -2.25229167810982   -3.78961261050027    1.07532846109624
O          -2.07768484155328    1.40167481333195   -0.45589530905771
H          -1.45925146186804    2.05361793186912   -0.09042992243940
H          -1.67937603085061    1.13433135724615   -1.31001597868160
N          -1.04846296880356   -0.69694124710982    0.78386643570406
H          -1.65906837101825    0.07005973569524    0.39129570122134
H          -1.59309487003709   -1.47762785739845    1.16382447781728
H          -0.43822513990224   -1.01796057423391   -0.00341796016940
H          -0.41044029151438   -0.26593331774320    1.51493296610387
