    26
        -50.46689708  Gyration_radius:  2.50037033775 Dipole_moment: 1.930
 S          -0.84356552884900   -0.31825123646917   -1.50463855409458
O          -0.48952882314774   -1.65083668857533   -1.06682590517372
O          -2.08212245630325    0.14498555925728   -0.89694550477474
O           0.24157743598746    0.63445944521870   -1.34343271220075
O          -1.10318307281689   -0.38884906251599   -3.06857160954354
H          -1.89957417253206   -0.90357621040656   -3.15980597154627
O           1.91563164629875   -2.07586772907303    0.18321753675042
H           1.06138608401436   -2.19905006058800   -0.26742495645793
H           2.46943139742728   -1.64472952781751   -0.49160654175624
O           0.63526072485501    2.43843393305894    2.35905510835409
H           1.11206793535331    3.19411553698986    2.01328126842911
H          -0.23270879682918    2.43462953133036    1.90693186004529
O           2.62442879609733   -0.47569352858309   -1.91312283266976
H           2.63521317374312   -0.72249051022877   -2.83866337258058
H           1.79276236806392    0.01656445028280   -1.77207383143196
O          -1.69624082925966    2.07195751714624    0.98281774138875
H          -1.78988689603011    1.51951858307720    0.18542380658763
H          -2.38591618379209    1.77411330602303    1.58037228886413
O          -1.74747070815043   -1.13548359808185    1.40464675609449
H          -1.55951727389193   -2.03991560298530    1.14025809140027
H          -2.04088795268065   -0.69124881488055    0.58309999141551
N           0.69651870635346    0.00844031091628    1.22688854119930
H           0.56508101094540    0.41487890816109    0.27561174961991
H           1.38024192037453   -0.78334698371325    1.09981262096699
H           0.96734472109594    0.77370231093591    1.87083954860086
H          -0.22634321630367   -0.39645983850512    1.51085491250979
