    26
        -50.46941046  Gyration_radius:  2.4610712499 Dipole_moment: 1.976
 S          -0.45266710126251    0.36516162372236    1.77068539988726
O           0.83265274094546   -0.23332029188571    1.43868776933046
O          -0.53817933691483    1.76851504282153    1.44328132018535
O          -1.55593629272531   -0.40257728138876    1.20354777866327
O          -0.58028292915554    0.26551319572127    3.34424330529389
H          -1.16500647326388    0.99148707483587    3.53277952013058
O          -0.34082475742051   -1.61446386684282   -2.19898800790522
H          -0.33280501696720   -2.18515616027007   -1.40062512119048
H          -1.15354996894770   -1.08821830522280   -2.11803194617150
O          -0.53162212746240    2.25476397476356   -1.18428403265524
H          -1.30530508656664    1.72189942521081   -1.42645125833512
H          -0.54762408931049    2.29054994879401   -0.20623205608898
O          -2.30662276178209    0.12128677116138   -1.26239361596990
H          -3.25631386405392    0.00640547314294   -1.31838739689259
H          -2.06424092058809   -0.06591021789372   -0.32494622800811
O          -0.29370138111767   -2.59018516228187    0.31188823687631
H           0.55699764731869   -2.47381705284265    0.74217161297862
H          -0.86117493399155   -1.89567313925812    0.69660656956734
O           3.39797727417661    0.45955210902625    0.55328670770698
H           4.04814219825475    0.78907013091798    1.17441689275247
H           2.62168837996789    0.20951958878878    1.07588917669653
N           1.18902866508195    0.26177462475571   -1.19236294932581
H           0.72909072021079   -0.51549029772500   -1.75633180237092
H           0.64729077118724    1.16120413538625   -1.34142863875929
H           1.07904899141958    0.02420918995036   -0.18306286278952
H           2.18393966296953    0.37389946662152   -1.37395835361000
