    26
        -50.46981715  Gyration_radius:  2.45792927232 Dipole_moment: 0.160
 S           1.52235535672198   -0.18024867796112    0.70652400843207
O           0.40945358775520   -1.09856261165355    0.49868521299370
O           1.44561798562460    0.94297527431707   -0.23042481228098
O           1.61482005484821    0.25628887433767    2.08123104644186
O           2.83978519697771   -0.96674494046446    0.36718736812360
H           2.74555779529190   -1.18445911322091   -0.56872347355818
O          -1.92666171019045   -1.17386948990120    1.85634946881240
H          -2.45809325818578   -1.00772150635475    1.06817352823282
H          -1.05256914583150   -1.43013565442564    1.50548433977123
O          -0.56713428977802   -1.01331194233438   -3.21857168807021
H          -0.69193340107918   -1.96015824435621   -3.30027709191007
H           0.35005040850156   -0.88484085278326   -2.91478504455567
O          -0.91155998017087    2.17556961783169    0.10188656966090
H           0.02120702992731    1.96901246495098   -0.10102514326557
H          -1.40674305837601    1.46096995693013   -0.36120960705796
O          -1.70285062188048   -0.17648745470203   -0.86452384168054
H          -0.90988877953805   -0.54820488124867   -0.42735847845295
H          -1.53974823603127   -0.33455761096687   -1.81069085483317
O           1.98575016786031   -0.55271404726034   -2.24301341530470
H           2.54478403799378   -0.09644704994216   -2.87622032358868
H           1.71775314931457    0.12523771036033   -1.57254975631230
N          -0.82062793244547    1.15342071275581    2.49408292117121
H          -1.39790871575061    0.27213377827403    2.41365530491437
H          -1.05052855686918    1.69394050327499    3.32058751468981
H           0.18978612843940    0.84706711169576    2.49484966678619
H          -0.95067320313829    1.71184807283230    1.58067658083733
