    26
        -50.46649785  Gyration_radius:  2.47843971638 Dipole_moment: 4.071
 S          -2.09566470210109    0.54124231392643    0.38476078003729
O          -1.49324889731058    1.48710112534961   -0.53526204941301
O          -2.39848179620905   -0.73105959360473   -0.26245002739430
O          -1.32460787361775    0.37846102609129    1.60095021263675
O          -3.48678973581754    1.15490835022983    0.82586227570142
H          -3.93316536234435    1.23775747120092   -0.00998386195706
O           2.28399329111705    0.74076927768620   -0.63120850271795
H           1.83699032112839    1.23611765117208    0.08520963949492
H           2.29757521415014   -0.18275398170962   -0.34883222518361
O           0.73583495904071    2.01756362955184    1.20382196535559
H           0.41492059722246    2.75578716736505    0.68158040115958
H          -0.05764070948581    1.46686273011167    1.36364102943282
O           1.72799837359047   -1.90846962941187    0.28803804882983
H           1.40935564964650   -1.51409319650041    1.14823821072564
H           2.24369167500128   -2.68031616728625    0.52415076560910
O           0.90787948869180   -0.77321099116027    2.48948713632292
H           1.37792897273655    0.05653613771015    2.61718840260682
H          -0.01035312384410   -0.50500887966272    2.29194949573611
O           0.29854049268425    0.78730095927457   -2.39093522683895
H           1.14248252802370    0.90747806114349   -1.89165658608371
H          -0.38665402273975    1.20975221670281   -1.83306716639048
N          -0.29317608237108   -1.56999293991680   -1.52875546421137
H          -0.00901418783057   -0.64359662154065   -2.02945058465449
H          -0.46335167732860   -2.31998518737764   -2.18911892537377
H           0.45682616332168   -1.82384306066083   -0.85810438382927
H          -1.18186955532692   -1.32530785865062   -0.99605336959738
