    26
        -50.46802105  Gyration_radius:  2.47969222129 Dipole_moment: 1.695
 S          -1.46194816485238   -0.94560654399369   -0.29824524355195
O          -0.23553717594308   -1.63088468548884   -0.68846865517937
O          -1.61598406748924   -0.90891251278045    1.14077924794095
O          -1.59085044283624    0.36798515380939   -0.90679375197207
O          -2.65726977683924   -1.80208715768174   -0.88136190921717
H          -2.59546586128319   -2.63691031217424   -0.42697634887638
O           0.69364509820570   -1.02191685239133    2.63471633000402
H           1.41788065208481   -0.89280839738740    2.01412410775893
H          -0.08730373247602   -1.23046198399753    2.09452454912107
O          -0.96412528957245    1.06697134834573    2.98785558577264
H          -0.25997019774834    0.43538562224459    3.23819401093569
H          -1.63450694150700    0.49497255225862    2.58613999618329
O          -0.03170215585398   -0.34110862458324   -3.01042452803440
H          -0.76761940550150    0.20794906696396   -2.71097602513065
H           0.00632815102710   -1.03773839300317   -2.33098345224422
O           1.80352439207050   -0.12721706676363    0.11287070219039
H           1.14277275077169   -0.79672559293286   -0.16717543879708
H           2.16445106269554    0.23034892874077   -0.72894659866158
O           2.22858944844471    0.89654515065706   -2.31334295355573
H           2.92618087217802    0.62554802735310   -2.91136379546190
H           1.39534673021389    0.50556395191131   -2.67287589668996
N           0.03089529921121    1.74340518299201    0.64915418040730
H          -0.34766731737292    1.62999133048013    1.64173136714916
H           0.86599992698680    1.09100551758741    0.52274330160532
H          -0.69938385469309    1.37213266110699   -0.00853654887647
H           0.27372000007900    2.70457361872159    0.43363776717228
