    26
        -50.47155355  Gyration_radius:  2.49984779302 Dipole_moment: 5.054
 S           0.90987620462278    0.31082695478835   -1.46489564531521
O          -0.52893432252606    0.05911400980406   -1.27583424469706
O           1.50708291978890    0.62948741728338   -0.15723201205875
O           1.56039175228900   -0.78472264686504   -2.12836072204971
O           1.04345564221166    1.57333828903316   -2.35768642629536
H           0.87809736461604    2.32614202392914   -1.73721225652699
O           1.47694170405899   -3.14380929887083   -0.97089733759827
H           1.65270424747752   -3.79061225444566   -1.65623849349807
H           1.60582768231611   -2.26582233873727   -1.39870676799667
O          -1.60343523854786    0.77173337369912    2.56662645221468
H          -1.69408509099244    1.26489920714856    1.72371280025093
H          -2.44493575998182    0.33753337792186    2.71743850813818
O          -0.88001331429834   -2.29258828852517   -0.06241919293092
H          -0.92743155951995   -1.51193909073736   -0.65144698267027
H          -0.12746786675560   -2.81798919880878   -0.40926202628142
O          -1.78803430608547    1.82549686384878    0.09006391213217
H          -2.59976173529509    2.01644813642627   -0.38257405263137
H          -1.31966341553250    1.12174230580824   -0.44558392776067
O           0.61295315389839    3.12937283219110   -0.31207830774240
H          -0.30882883824572    2.94740443795013   -0.06598326609950
H           1.13135378778632    2.40896681350668    0.08349940241105
N           0.38043903670109   -0.83087586869838    1.68969390913413
H           0.91839339961054   -0.23298798965900    0.99386556462682
H           1.01664624422478   -1.28692954352483    2.33383974105464
H          -0.30944263771063   -0.22180555437384    2.18560652872733
H          -0.16212903410880   -1.54242399009881    1.09206484346349
