    26
        -50.46497265  Gyration_radius:  2.60875141555 Dipole_moment: 5.247
 S           1.51128797108945    0.61562632130988   -1.18081620917752
O           2.35360041984221    0.29564425412792   -0.03964529420399
O           0.67197833372075   -0.52673775343802   -1.55698670976250
O           0.71957394040025    1.80715930275710   -1.01292555632279
O           2.51353580704465    0.85816359085261   -2.38355393416712
H           3.27352179744246    0.35473526692270   -2.10931783145150
O          -0.02100050553414   -3.08225957863631   -1.17970480012423
H          -0.15573605705824   -3.42881902905443   -2.06355971809822
H           0.33545389991693   -2.17939051475672   -1.30417053868512
O           0.91910507442020    0.09830483668921    2.10874741987318
H           1.52865632442806    0.18306960719552    1.32875360869156
H           1.36772089144870   -0.47130213396761    2.73523126379846
O           0.28877172139967    2.80467399250957    1.47389492652166
H           0.64627685366951    2.60541773920969    0.59014676670481
H           0.52126437077587    2.04143886341566    2.01593513982140
O          -2.26196456383513   -2.62948468067552    0.23809016112650
H          -2.32598290193224   -3.26706246113551    0.95004794142709
H          -1.48044139170509   -2.89086202011535   -0.30021641660190
O          -1.93194330491504    2.35812310068215    0.03794161827077
H          -1.32207576425386    2.70728105358521    0.72458329440176
H          -1.44950341378781    2.50235072470160   -0.78382214088379
N          -1.16312670881392   -0.15639420894090    0.35190559477422
H          -0.54718143714822   -0.12609451188893    1.18371059163042
H          -0.53609542859569   -0.27759053542928   -0.47646581824612
H          -1.80269795607098   -0.97376769103982    0.40036645139941
H          -1.65299799194353    0.77777647511995    0.25183017928868
