    26
        -50.46469946  Gyration_radius:  2.37679862868 Dipole_moment: 3.566
 S          -0.96853788903039    1.52330995558055    0.47806197014625
O          -1.55545080064693    1.70019278762133   -0.83495925052777
O          -1.61836096425966    0.49019466357526    1.26028413569846
O           0.47385138181272    1.35175480319201    0.45023896241791
O          -1.20466778511281    2.88957360886125    1.25445138329639
H          -2.13056399698210    3.05782098472469    1.11103809420807
O           0.21829578374509    0.65727735909790   -2.54153015374414
H           1.00854213966406    1.19907066823077   -2.49658271804317
H          -0.44262133189068    1.09991812988081   -1.97291528695698
O           1.08336691209112   -0.25667461058911    2.46893515254038
H           0.57650861825177    0.01173682738272    3.23682918417606
H           0.87824887054275    0.41107069721295    1.77581223438826
O           2.78554664627787    0.02341829283627   -0.11212985462301
H           3.01536248907125   -0.22482875598149    0.78643341297756
H           2.04935783305552    0.65101313031895   -0.02195266653578
O          -2.06342844057604   -0.96003548636841   -1.26010875233081
H          -2.10532184139281   -0.01060010211659   -1.07831056099907
H          -1.75436335552054   -1.03653844405899   -2.16591532739354
O           1.06228615246355   -1.61966261950015   -1.37002028662046
H           1.85916720903080   -1.19088011972373   -0.99495306680943
H           0.66253096912945   -0.91594269633291   -1.92376037194449
N          -0.37074806796514   -1.79983585163685    0.79994647542155
H          -1.07574305931079   -1.02273967828362    0.80212823139371
H           0.14735754922630   -1.78491665959498   -0.15152008683111
H           0.29837577036795   -1.55138646393295    1.55448759482524
H          -0.82899078204162   -2.69231043039512    0.94601156187015
