    26
        -50.46616487  Gyration_radius:  2.70829995012 Dipole_moment: 6.491
 S          -0.32052344885936    0.43970178875315   -2.45229192184827
O           0.31587654899991   -0.83180303508817   -2.12007338751877
O          -1.47987480493843    0.68741304791985   -1.60104940459589
O           0.60176136073966    1.54639236873695   -2.49145147034931
O          -0.88067402954031    0.27209817391052   -3.92511940061667
H          -1.42436874995005   -0.50526217887277   -3.85272625342329
O           1.97614880208148   -0.59104478807880   -0.03340332191414
H           1.50986817686398   -0.76192900758648   -0.87785736100550
H           2.13479438274771    0.36724630926742   -0.02608383164725
O          -0.19099492366024   -1.57757297327827    4.16152727626745
H           0.48163931199557   -2.11905307014821    4.57869122144250
H          -0.68390366198373   -1.13608281743263    4.85576515525112
O           1.74452061122737    2.15497921311576   -0.25415430816935
H           1.33584570882049    1.96798142400303   -1.13923172752369
H           2.33423950709462    2.89806783461260   -0.38945605354278
O          -1.64180930496916   -1.75271115706717   -0.60618116097858
H          -1.97885457805054   -0.87178793344289   -0.85206323179294
H          -0.85064624673773   -1.81646371111695   -1.17191371707455
O          -0.79450863495403    1.74340616396409    0.76005823251838
H          -1.16793546149215    1.49498015766446   -0.11104484133011
H           0.09038091563144    2.09093028531533    0.56117635230597
N          -0.22538091778142   -0.75503636943522    1.43001331214212
H          -0.52184405640199    0.25771521293220    1.35590998707986
H           0.73875248207726   -0.80470730199241    0.99812535986192
H          -0.23606526253325   -1.09090913460781    2.39545624734059
H          -0.86644373641337   -1.30654849204901    0.80737824911492
