    26
        -50.46882413  Gyration_radius:  2.44120727953 Dipole_moment: 1.998
 S           0.21771377388543   -0.53613342773401    1.78725587326402
O           1.33562920217683   -1.00466979539929    0.97092872085448
O           0.23609539181643    0.91819200122184    1.90885892454194
O          -1.05007786240940   -1.05364627769833    1.35297209260835
O           0.48593421195174   -1.09067953248545    3.24350903699751
H           1.30728575925047   -0.65256977707294    3.43426664528512
O           1.75864311027301    0.52227032138310   -1.19690411478866
H           1.76675771391548   -0.02201613301719   -0.38403992980684
H           1.60117331252235    1.43817770269543   -0.88057703310752
O          -1.75525810414988    2.09251571375426    0.61064621287355
H          -2.46019556856938    2.29875924678924    1.22625612804194
H          -1.06619962781783    1.62624421736684    1.13687781249678
O           1.05716406020576    2.76612816973014    0.08462993072075
H           0.16716068652042    3.05980248357613   -0.13406995108517
H           0.94428534786783    2.21264705074704    0.87721818790800
O           0.68958427166505   -2.87439775987213   -0.77081718876076
H           0.84662325023585   -2.25153170810248   -0.02417129037274
H           1.53104381394086   -3.30593691249303   -0.93015922007974
O          -2.29907237278619   -0.14415849737410   -0.80220666677654
H          -2.22917549460845    0.78141706295996   -0.49619152858852
H          -2.01981402350192   -0.65620018589886   -0.01541358444998
N          -0.22103153687387   -0.82343288543160   -2.23536978992991
H           0.57094210093288   -0.16516479937712   -1.94404471606874
H           0.04040441756124   -1.75282713270069   -1.82974771098105
H          -1.12398523979668   -0.51276485411382   -1.74830237926153
H          -0.33163058420631   -0.87002432143977   -3.24140446152210
