    26
        -50.46859032  Gyration_radius:  2.40989690943 Dipole_moment: 1.471
 S          -0.62362295979307   -1.42712166332368    0.97008817566423
O          -1.59185779225725   -1.61635664824296   -0.10280849336987
O           0.73903968131846   -1.56311323541811    0.47163761087927
O          -0.84119676320143   -0.20457070189338    1.70996980181780
O          -0.84602770672048   -2.60964985712525    1.99298120616837
H          -0.78312150486424   -3.39018508436221    1.45163551145586
O           1.72462205559038    0.21528937713680    2.21548416588839
H           1.81136972595445   -0.55810679919435    1.63653008478774
H           0.77302540987939    0.21301184814821    2.41514700000504
O          -0.59012844529570   -1.88911884871238   -2.68986251104655
H           0.35102585540914   -1.73700840936241   -2.57874001015199
H          -0.95284671102150   -2.02332832280584   -1.80297891124481
O          -1.07885116244508    2.25112109515443    0.59910503438400
H          -1.14438253047517    1.48072173319119    1.19266651210906
H          -0.12560616991441    2.44730465587512    0.55497422775388
O           1.25047754018130    0.22321697401720   -1.43001549351367
H           1.55665638468720    0.99239488216396   -0.91925222952801
H           1.17741684959164   -0.50400293121962   -0.77634860329392
O           1.68022089836360    2.17872832364659    0.46430438413166
H           2.35619172230368    2.83508981213817    0.63661890852588
H           1.77047842593557    1.48749008114792    1.17588485225036
N          -1.34873290905293    0.65586817519986   -1.46213622539221
H          -1.89744827383495    0.81732313934877   -2.30002662474396
H          -1.39786687721722    1.44275154145996   -0.74841036678422
H          -1.64874916298676   -0.22820393323137   -0.98575537205234
H          -0.32008558037822    0.51045481700780   -1.69069264462956
