    26
        -50.47165462  Gyration_radius:  2.51559690607 Dipole_moment: 0.602
 S          -0.51567660399552   -1.52409698988771   -1.22302882793045
O           0.62425293087599   -1.54857192294219   -2.11476065499460
O          -0.09944791613851   -1.50805450024480    0.17890205233011
O          -1.47318534574403   -0.47730296854127   -1.51158864420554
O          -1.28717398114573   -2.88896782426141   -1.43722761404838
H          -0.58495557808952   -3.52736221520879   -1.37216187246479
O           2.27595072128926   -0.47413530740618    1.06066401077189
H           1.51827905381073   -1.04852116463797    0.86148357954912
H           2.43944079574067   -0.00409354564182    0.22828542779258
O           1.30191664641815    1.16492794810788    2.92383974872999
H           1.76624267239991    0.51120906632826    2.34588652056647
H           1.87865136984222    1.92720712005214    2.98509323689225
O          -0.24296126007954    1.88993406403202   -1.10405975952252
H          -0.79261635133704    1.18282962391775   -1.48715682623896
H           0.67435181672676    1.61737783569528   -1.28184536546585
O          -3.23161218382980    0.06573954601826    0.45177644523221
H          -2.65928058845154   -0.17532001782236   -0.30375849628355
H          -4.13276351051963   -0.05854622663088    0.15308035831912
O           2.08629579815853    0.51748560470392   -1.53058265044523
H           2.73336015131743    0.64212019957015   -2.22705076294946
H           1.56931828363290   -0.29061739586771   -1.78057695548729
N          -0.77817028273384    0.82012210175271    1.26642362996012
H          -0.58190426954494    1.43684959023125    0.43163986054391
H          -1.78012392741523    0.83578864828538    1.47134790153936
H          -0.54793389022317   -0.15408037053666    0.94828570769126
H          -0.16025455096173    1.06807907094024    2.06708995012669
