    26
        -50.46810230  Gyration_radius:  2.50763025373 Dipole_moment: 3.295
 S           0.11265034430153   -1.21746753318944   -1.64866195923753
O          -0.11318759282139   -2.05896183549102   -0.47705511597466
O          -1.06021298956470   -0.99276740215143   -2.44954269815679
O           0.81450180431137    0.00236112263919   -1.26607607737189
O           1.12020033432884   -2.03655988602161   -2.56757719142527
H           0.71041107844061   -1.96360529300286   -3.42334592986672
O           2.00763718832370   -1.96192975088166    1.16383099058314
H           2.79823520003059   -2.15824453467603    0.65997828548939
H           1.25601524131230   -2.12901045499436    0.55877385868576
O           0.66257299527314    2.98436540630180    1.56428327569179
H           0.45258070564065    2.99501726703488    0.59203429516668
H          -0.00984886372773    3.52170246954313    1.98491146291076
O          -0.07577577282081    2.61747543663332   -0.93590977680995
H          -0.94635124741615    2.18339924496111   -0.85771725820082
H           0.48640891811468    1.91869550331623   -1.29647983144953
O          -1.72422360370699   -1.12948756776055    1.35627734532304
H          -1.20599363249668   -1.58422533763332    0.64924978356875
H          -2.12767320848642   -1.81987470958432    1.88430627091632
O          -2.07966839879991    0.79528505258302   -0.69756512300269
H          -2.25099391579905    0.22711829109087    0.06237428905975
H          -1.84256621073742    0.20262244532402   -1.43118621798879
N           0.60590536319790    0.33374677771215    1.34675480254117
H           0.68175828902260    0.28120981678883    0.29317423745044
H           0.71005910164376    1.33679556794747    1.63567744824030
H          -0.31935815824347   -0.04545652101925    1.60337187072993
H           1.33691702060164   -0.30220357545574    1.69611897309796
