    26
        -50.46086483  Gyration_radius:  2.62469426878 Dipole_moment: 1.428
 S          -1.47435516406459   -1.85750879480188    0.07920082769585
O          -0.25780694248520   -2.08428929358891   -0.67587441703453
O          -1.25068442262009   -1.93281500535895    1.51167581310381
O          -2.16390032138351   -0.63880387531829   -0.32572480780447
O          -2.46950990040790   -3.03988712572818   -0.28862977784906
H          -2.04061380418992   -3.80042198876491    0.09074447946985
O           1.23539285035776    3.25299920325278    0.79786306363720
H           1.75072668206655    4.04452098711713    0.64435311127938
H           1.86516205194306    2.50272290652873    0.76363821644502
O          -1.36857581145634   -0.02441348932470   -2.82114764536860
H          -1.75878765350979   -0.24452247190790   -1.95122865825954
H          -1.57501791093484   -0.76420272638752   -3.39383954757225
O           0.74894433813816   -0.47702908256080    2.24852412143637
H           0.05481275233844   -1.13751558283780    1.98272221902163
H           0.72244867379441   -0.44006909018427    3.20621364507353
O           2.65716195370530    0.92411829146226    0.58240574069414
H           2.27540840379410    0.29791700617393    1.21096091356195
H           2.45776600669383    0.57236945017474   -0.29472197577472
O           1.03119059975520    0.00190409554561   -1.58767279481436
H           0.40877642738621    0.17464135472514   -2.31821919265765
H           0.73686882579895   -0.88120230063992   -1.26346473433552
N          -0.34274860127467    1.13906070769243    0.36995416802568
H           0.27472573275962    0.83265882395115   -0.44268579904178
H          -1.27636276919107    0.72088456474129    0.18895603941016
H           0.05913125796795    0.69996131222328    1.22476034102600
H          -0.30015324495615    2.15892211381138    0.46123667063025
