    26
        -50.47395389  Gyration_radius:  2.4082440329 Dipole_moment: 3.047
 S          -1.48473106632648    0.94282335797417    0.09459655560887
O          -1.52266175052554   -0.49986483021106    0.29491401753315
O          -0.16145086365670    1.47881332940795    0.43614020952988
O          -1.88850816783774    1.32083522542322   -1.24105405382189
O          -2.49992540900007    1.58748506266496    1.10118479916544
H          -2.09021660533689    1.45282305124278    1.96974477144670
O          -0.25361243654334   -2.10492486244723   -1.43919353716130
H          -0.87807211334459   -1.70351928488295   -0.80234117888404
H           0.59655970622012   -2.12382408621354   -0.96312221174449
O           1.91433914666280    0.85259650980334   -1.10948341081554
H           1.26199748210570    1.23900635731812   -0.48970723194672
H           2.14653983952770   -0.00423822642888   -0.71115116369014
O          -0.52425028211932    1.35205516728184    2.97874023264297
H          -0.19975477531702    1.45597270454700    2.05190531752162
H          -0.27229071637655    2.14837737995074    3.44998835775027
O           1.98472350212273   -1.62118902976155    0.11921399262271
H           1.40636402288459   -1.46106265879744    0.90933775146274
H           2.64689997344383   -2.25479284060373    0.39806812196225
O           0.26813531881702   -1.25845952379999    2.08811788255953
H           0.24302875347756   -0.53341995204581    2.72206343558437
H          -0.47904327538019   -1.07764011354603    1.47900040533527
N          -0.04200211877046    0.16822376429212   -2.71067583178583
H          -0.03483095979882    0.27513192014616   -3.71863315978205
H          -0.83993923012393    0.69651443475128   -2.26383516543634
H          -0.14929897456487   -0.84727537498599   -2.39755419645838
H           0.85200100967767    0.51955251908406   -2.24626473930545
