    26
        -50.46414068  Gyration_radius:  2.71046707635 Dipole_moment: 2.734
 S           1.21997021306123   -1.18005717913709    1.74997844881072
O           1.50970214810654   -0.62367755503672    0.42060635681108
O           0.53878730172558   -0.19526226299928    2.57445915495287
O           0.55071036295564   -2.45133622892758    1.66598795010819
O           2.62277489343094   -1.42941354309652    2.43779663922263
H           2.89129144437643   -0.54534015092795    2.66743324502658
O           0.64363744749984    2.55234619418352   -2.33242203966039
H           0.90652244860900    2.35838150315778   -1.39946357737290
H           0.34841105491059    3.46357892191730   -2.34006071602723
O           1.11877631580246    2.02536919007864    0.23259985410481
H           0.27374481340176    2.06055853652147    0.69792291274066
H           1.41113961820377    1.09597969171727    0.30490678748866
O          -1.33830395089182    1.15492356358234    1.42567323774963
H          -2.06701233614719    1.27594854062576    2.03566000997143
H          -0.64291852630245    0.65097001129574    1.92895526095876
O          -1.62003159764945   -2.93319724093288    0.25925052620544
H          -0.86645557407929   -2.81889994736095    0.88388587161575
H          -1.52725253430043   -3.81726786263989   -0.09893155926373
O          -0.86923449634041    0.53654263476529   -3.14064746283748
H          -0.34603254491841    1.33973964728242   -2.89992055477454
H          -0.35764110713993    0.08625144901573   -3.81440376053615
N          -0.89473189218873   -0.52347775616648   -0.67224480792668
H           0.11378399409819   -0.61222838488071   -0.38956833016196
H          -1.34100447363474   -1.45082488517396   -0.51678202863097
H          -1.30823268469663    0.16671939268818   -0.01865095452692
H          -0.97040034788277   -0.18632626955567   -1.66202045404475
