    26
        -50.47208660  Gyration_radius:  2.44313911945 Dipole_moment: 2.369
 S           1.43783032666622    0.16364487619446    1.46945727110945
O           0.16988584675803    0.08922561942998    2.18647747597100
O           1.84738787171495   -1.13342587784579    0.96116213544883
O           1.43491773318345    1.21122679791057    0.46834811241559
O           2.53816587524295    0.57698738670624    2.53180088490606
H           2.72618332976192   -0.24594300686184    2.97108662665352
O           2.02554555026016   -0.30990172774740   -1.61430033343227
H           2.14096419290392   -1.09122425348898   -1.05972650648770
H           1.97141142327220    0.41018956457521   -0.95655119461509
O          -0.51027870742817    2.33335590851746   -1.03634128326313
H           0.31641661838395    2.17484197561438   -0.54675957409215
H          -0.52103498456771    1.65550585083131   -1.73636172969056
O          -0.40004060928729    0.02041483587185   -2.56151201067001
H           0.52593317685040   -0.16992170167853   -2.25077796810752
H          -0.38398754206776   -0.05914947347911   -3.51596810868651
O          -2.13648737942176   -1.15360573812724   -0.77127172825988
H          -1.58714969186047   -0.85140758374438   -1.51609669097877
H          -1.57212697605534   -1.76780817434766   -0.25104362452899
O          -0.47905725720361   -2.39615344860534    0.92491946276325
H           0.42576366125658   -2.02739684959601    0.86938062345255
H          -0.79182652532929   -2.12846806273665    1.79234200594923
N          -1.86245001117554    0.95399383069120    0.74784343866923
H          -1.08783569090677    0.66013510823518    1.40144042051299
H          -2.65100100624468    1.33300526776964    1.25888673638501
H          -1.44712732526345    1.65856757128642    0.06856505840814
H          -2.13000189943155    0.09331130463975    0.16500050013367
