    26
        -50.46959510  Gyration_radius:  2.51728360574 Dipole_moment: 3.304
 S           0.38861389616427   -0.47474813762145    1.36530609668854
O           1.36659642214061    0.31528363617459    2.06491225475605
O          -0.67433381438619    0.37531529564209    0.78451549829802
O           0.95322157361738   -1.34151503133509    0.34459043180337
O          -0.32966620809079   -1.43341738435647    2.37458110095691
H          -0.85969825962415   -0.84109859975466    2.94400431555226
O          -1.88103228469141    0.57238851199692    3.13609006899532
H          -2.82449549192409    0.42793483035266    3.03138826963854
H          -1.53293419040824    0.79276981531749    2.25191153968122
O           2.64611099935421    1.95865110651241    0.45170230062101
H           3.00905409666470    2.65386629920856    1.00331578571767
H           2.24969098864450    1.30784395076628    1.07503968124566
O          -1.28879130768207   -1.31553247324983   -2.95941662333977
H          -1.54712592171092   -1.58663059816738   -2.04324756295896
H          -1.96976792826392   -0.71022393893145   -3.25753011011694
O           0.43298460620659    2.02306510596523   -1.03508103933513
H           1.27642743451411    2.21498149446551   -0.57142427461154
H          -0.11927018870238    1.58849594142316   -0.35688919248523
O          -1.73527287946597   -1.75795441073836   -0.37962458424558
H          -1.47357674950602   -0.90325476814946    0.01610089724206
H          -1.07413700159052   -2.37569153211327   -0.05356436591376
N           1.01682286258091   -0.30284438486147   -2.06709000169636
H           1.87546723133446   -0.40808279880236   -2.59528990371973
H           1.08660441743604   -0.79791969741572   -1.13425363843160
H           0.82057870239195    0.72098380105683   -1.81529228692444
H           0.18792897481232   -0.70266604377903   -2.57475463749089
