    26
        -50.46888670  Gyration_radius:  2.51065582796 Dipole_moment: 3.516
 S          -1.32304029193465   -0.13968907762226   -0.58723945763980
O          -2.30626107857365    0.72835445707890    0.03457815933177
O          -0.01763541011741    0.51170378402742   -0.70348294723979
O          -1.20483749268837   -1.44076350605694    0.04012403761660
O          -1.79315173490008   -0.42525063981369   -2.06076305833448
H          -2.16624787846283    0.42639023362275   -2.36950884135783
O           1.67064416472091   -0.27882657904319    2.46532598931967
H           2.02538281432455    0.44484320259215    1.90529138477701
H           0.74569434300172   -0.00210163691753    2.61916610654872
O           2.07642821342005    1.58152861690761    0.57978928088175
H           1.24467757824039    1.31446415253534    0.14227726896665
H           2.76008046355943    1.47398851016651   -0.08396060664105
O           1.84744328767215   -1.03020219762949   -1.68880487637382
H           1.16170474824753   -0.38054270613004   -1.39638947762670
H           1.51976913399682   -1.39832888177224   -2.51059049302769
O          -0.77382578915220    0.85822713541242    2.23975542706474
H          -0.48806316908123    1.77187335210913    2.15650347307381
H          -1.40738398224716    0.71594262786165    1.51627279777086
O          -2.91691573434617    1.96342277795134   -2.18525589562237
H          -3.86837227998222    1.99010989726996   -2.30975064012119
H          -2.76843571676632    1.75704613704643   -1.23861153421233
N           1.21717374096792   -2.12116536736206    0.69242470497830
H           1.71419638353949   -1.87400903176742   -0.18743487209824
H           0.18930929310079   -1.93753639990764    0.48768358788339
H           1.37397696424668   -3.08412277058971    0.96644322881280
H           1.48768939921576   -1.42535606996752    1.47615728326827
