    26
        -50.47030175  Gyration_radius:  2.49871183318 Dipole_moment: 0.719
 S           0.66339062424008   -1.88263562204325   -0.19207201827893
O           1.67250676501520   -2.00588800854723    0.83399830548746
O          -0.67734256950355   -1.73347036036790    0.37131143076786
O           0.95624964280435   -0.85427021290390   -1.17609229557295
O           0.66352726763348   -3.25201432378812   -0.99061769817295
H           0.89677325870448   -3.89447511393608   -0.32801622007096
O           1.76225813319881    1.48409183486501   -0.32825059890426
H           1.47427149124414    0.60598185045786   -0.67583469678893
H           2.42995242429895    1.80383377231996   -0.93684739795421
O           1.92018011282199    0.27628454530604    2.17413505558840
H           1.98576850448233   -0.62535339648428    1.79444436998163
H           2.10664662040694    0.87356496744041    1.43185323517884
O          -2.27304256698257    1.49371869373351   -1.69917938314613
H          -2.06340441295783    0.54316127648704   -1.86125105407396
H          -2.36762385795669    1.89717785523334   -2.56246122795994
O          -1.53476270245282   -1.04014016812346   -2.09731308751177
H          -1.70518755896591   -1.47880613321444   -1.25321864801313
H          -0.56854080530518   -0.93813402810549   -2.09151263640335
O          -0.76689864900605    2.40449305142929    0.31885815286786
H           0.14413865936905    2.27887563365595    0.00276850145283
H          -1.35578946528848    2.15372359408239   -0.42552284663301
N          -0.69793287081729    0.37737703028702    1.96213245173184
H           0.32577911354148    0.38372078565578    2.25259164776575
H          -0.84918371682187    1.24565142418744    1.34685879754499
H          -0.81901664218090   -0.48210501898136    1.36924277033549
H          -1.32271678956474    0.36563604138756    2.75999510041332
