    26
        -50.46802072  Gyration_radius:  2.47938165224 Dipole_moment: 1.698
 S          -0.08485676658901   -1.53896598974521   -0.86329489834444
O          -0.28498584926937   -2.11281061006808    0.45073560492743
O          -1.15615633573237   -0.61384458460596   -1.21272945595699
O           1.23661316422591   -0.95504726184804   -1.02229182881698
O          -0.15480533465954   -2.72188455653176   -1.91137494639540
H          -0.99119005029123   -3.14322838492496   -1.73778448744889
O           0.35164827589363    0.78638209787287   -2.90472493137723
H           1.09974711297150    0.26354616105360   -2.58893144597816
H          -0.41050070451774    0.33898194938091   -2.49566199045961
O           0.73321554920710   -1.36451468939054    2.92942968722845
H          -0.18771667365702   -1.07461822729656    3.08848819905604
H           0.63137655930635   -2.04024156815808    2.24310638236069
O           0.24480775055043    3.00464826704421   -1.42316448654864
H           0.36146827880346    2.24387516574662   -2.04280889535029
H          -0.17687328373498    3.69758327930864   -1.93287742383981
O          -1.75601120883755   -0.61843426899614    2.23519776645357
H          -1.46473801728804   -1.20680136232444    1.51816279216497
H          -1.84580150380272    0.25494052566781    1.84089274908130
O          -0.96127106290184    1.48398625108262    0.40688361178843
H          -0.63951172011958    2.19839980573118   -0.18703951933866
H          -1.17775416675265    0.74109535512392   -0.19680625862180
N           1.35389536722127    0.49384926554296    1.17529646131220
H           0.43474427429169    1.00852891362289    1.00506645559214
H           1.50553945269103   -0.07628916668338    0.30592228832538
H           2.11852935245040    1.14115192687679    1.33522667035482
H           1.22058756054576   -0.19028827349256    1.98508186982474
