    26
        -50.46061529  Gyration_radius:  2.54376077066 Dipole_moment: 5.976
 S          -0.30911065897542    0.20269529445031    0.33650859927285
O          -0.02240275363058    1.22730925421524   -0.79172748599587
O           0.77774423670058   -0.80083789528997    0.27585164418014
O          -0.33392229758324    0.87816856905669    1.60844085225546
O          -1.57355560445931   -0.42198086754052   -0.03216016776951
O          -1.11219094735446   -0.54893065054893   -2.60457847361122
H          -0.64600634890124    0.26839176479192   -2.80265241163850
H          -1.46590030440216   -0.41615070826936   -1.69336550814909
O           0.09753669988089    3.49044041063022    1.87174687685217
H          -0.12192335605579    2.53565633213413    1.89311977236275
H          -0.72154525115108    3.94878720105751    1.67986285785455
O           2.48973286464641    0.64690009994579    1.73877330288194
H           1.98588953899211   -0.01362850015351    1.23007143618570
H           1.90830113602196    0.89538404388964    2.46340280483326
O           1.88738335038292    2.62366332052228    0.05649650485112
H           1.39401882650965    3.19648424102291    0.67778103337626
H           2.34799687797399    1.96950390291521    0.63172101677796
H           0.77825674086314    1.81352914480568   -0.50124063345441
O           0.30679922534750   -2.39082498855408   -1.56097185372378
H          -0.17079572089354   -1.74131086266365   -2.18351024183248
H           0.63927340226379   -1.75586075396596   -0.79205373174302
H          -0.52352091843310   -2.89601775980490   -1.05357657837711
N          -1.69290215706109   -3.19020227213993   -0.26515788099483
H          -1.88816053809315   -2.22076888169802    0.01095694466940
H          -1.53651498395168   -3.74282176713378    0.56728904341089
H          -2.49448102863140   -3.55757767167601   -0.76102773247871
