    26
        -50.46724605  Gyration_radius:  2.43435623144 Dipole_moment: 7.563
 S          -0.10981111625677   -1.38364778347473   -1.25713082447647
O           0.29099570077951   -1.82713871741759    0.08090501103043
O          -1.09799659552574   -0.30422936375396   -1.14204644450275
O           0.97112169825900   -1.05851890370246   -2.13001985947773
O          -0.88779828395204   -2.61689237331033   -1.87038890139744
H          -1.25902604214420   -3.02437253488432   -1.09558963584683
O           2.37722528468743   -0.13444363099934    0.84445481427061
H           1.81527037444657   -0.86741662573916    0.55319302690705
H           2.69809277231781    0.28828498072114    0.01745400050550
O           0.65199439195597    1.66620448168986    1.66966189883043
H           1.44773652018434    1.10141237484995    1.47889361983765
H           0.41416340571435    2.04347389502307    0.80719939754090
O           2.59252549848376    1.04269404725089   -1.55383068075356
H           2.19155528213310    0.26224016999148   -1.97077519529588
H           1.85408447295217    1.65201099840885   -1.41139997891284
O          -3.07142403827403   -0.42796879252460    0.55990486428906
H          -2.40759299522983   -0.41156180368215   -0.17163141909596
H          -3.71776479240139    0.24758130914301    0.34946840076455
O           0.01888887555627    2.07189534215379   -0.98191823677094
H          -0.39138970343112    1.18372868394903   -1.09252664998577
H          -0.39222525405274    2.64400088226159   -1.63134433487503
N          -0.81393765329426   -0.43363179621355    2.01903204729652
H          -1.80197980433943   -0.33679622801290    1.71263564007415
H          -0.34547433767439   -1.06214621390338    1.30951043094372
H          -0.28364051016551    0.51498812282925    1.95654600195760
H          -0.74359316072851   -0.82975053065329    2.94974299714250
