    26
        -50.46021476  Gyration_radius:  2.60091833026 Dipole_moment: 5.812
 S          -0.93319861869642   -2.00290499679495    0.00754497345961
O          -0.21614958022451   -2.38158852769531    1.21554974274069
O          -2.17464813548274   -1.30329754895130    0.33661962185502
O          -0.11993032379956   -1.26806482790969   -0.93184226465492
O          -1.35448542447718   -3.34882597800864   -0.70600990578630
H          -1.80468970129525   -3.81595662536927   -0.00961772488545
O           2.38922036627338   -0.64799045545037   -0.16669107013891
H           2.17018596823341   -0.36689072172276    0.73036201045497
H           1.55476375114795   -1.00652337643439   -0.52213819606421
O          -1.28120867335764    2.67377984524583   -0.47266543802006
H          -0.76267929801235    2.14871936285512   -1.16339622701481
H          -2.11823871911686    2.88008681715510   -0.89149217420241
O          -0.08325554500338    1.16666101979430   -2.17628801094236
H          -0.17017232637414    0.25959955975109   -1.83635312896790
H           0.87794204475882    1.36425105758768   -2.13687485664703
O           0.90587733046371   -0.30731310253108    2.24458933187463
H           0.53219855224004   -1.15324956474040    1.87050932358996
H           1.25210182156331   -0.53034041760253    3.11030163331859
O           2.58652461663356    1.41246892877765   -1.85892479894689
H           3.10269716037393    1.10589940818482   -2.60561915451689
H           2.61819605433271    0.68725663638710   -1.19243507370666
N          -1.39724558126159    0.90058699665419    1.44884600148309
H          -1.99480092013693    1.19854497509684    2.21306392005315
H          -1.33453227874001    1.66602414876128    0.69939333386796
H          -0.45239992065675    0.65261495408679    1.80404178919355
H          -1.79207260948632    0.01645245246973    0.98952632259378
