    26
        -50.46061530  Gyration_radius:  2.54394979785 Dipole_moment: 5.971
 S           0.11523727175558    0.06775704128001   -0.48130168032425
O           0.44262494295938    1.08291326555230   -1.44924177327111
O           0.65510273622182    0.39894145149195    0.85695434312231
O          -1.42467489067080   -0.02249621341865   -0.32202995754090
O           0.53583754386114   -1.27557086484582   -0.86014340814919
O          -1.39629510739280    2.55218327130546   -2.69010654877151
H          -1.73396139507871    2.04591001145617   -3.42998106079197
H          -0.63836793634704    2.04356435999868   -2.33372185131096
O           0.26522725560847    3.03518983995974    0.60049218925727
H           0.50375613554330    2.12153402433129    0.83984272624802
H           0.64032331635799    3.16606522516600   -0.27536311571738
O          -1.11297361786269   -2.56565127483581    0.70939964439964
H          -1.92201419002888   -2.04667688677276    0.68176485299259
H          -0.56495924744749   -2.20712353814937   -0.02827471658936
O           0.71729244701414   -1.65696570459862    2.23246530566863
H           0.69328552751203   -0.71402256547806    1.76788665226613
H          -0.09707100182830   -2.11589027505584    1.82789033907243
H           1.55068181441623   -2.12113918118682    1.69308625905977
O          -2.20668867399761    2.35834369356807   -0.12941379752783
H          -1.41692645517978    2.77507863127602    0.28715487217714
H          -2.15363924628646    2.61379839114341   -1.07247718560692
H          -1.79548882349854    0.93622206690305   -0.21188996144835
N           2.46308379753127   -2.56970125322418    0.67119527141133
H           1.95138967857670   -2.16375141994492   -0.12092783262820
H           2.53797350235484   -3.56935870120687    0.53530054194406
H           3.39124464589756   -2.16915341472029    0.70143988206522
