    26
        -50.46806919  Gyration_radius:  2.61673077072 Dipole_moment: 1.385
 S           0.53859961760616   -0.37050152959056   -1.80550081399988
O          -0.59261166635828   -1.09104698477026   -1.22142036193360
O           0.23808320321811    1.02477768156776   -2.03635096518496
O           1.74861249673071   -0.58518798330730   -1.03442591373738
O           0.79063629125541   -1.00228853805165   -3.23657917015130
H           0.21587293729108   -0.47083091998664   -3.77777760040349
O           2.85112305159457    1.52924194092149    0.13582901936727
H           2.49401460823772    0.76660550656620   -0.37072003099139
H           3.41871728158796    2.00779448558519   -0.46948036107573
O           2.15384411640807   -0.92508082337101    1.66187101007251
H           2.69736345933245   -0.13540635191688    1.75095005518331
H           2.13639900215328   -1.10329046208613    0.70627234788591
O           0.23445108801078    2.28958509931421    0.31117752886112
H           0.10959600080458    2.00795861725351   -0.61803034167040
H           1.20158384470689    2.28124567968120    0.42912211527306
O          -2.92503954390128   -0.50598356801101    2.06712325700840
H          -3.49203850585506    0.25261843846995    2.21348840537420
H          -3.12413435919813   -0.82419701608455    1.15813079058962
O          -3.17909812092380   -1.28732484931320   -0.50057099262896
H          -3.38764227044193   -2.21286353095069   -0.63977995930068
H          -2.28068684257350   -1.16153798436575   -0.86133336327471
N          -0.37624107307723   -0.10067372018897    1.25677668319427
H          -1.24904366510167   -0.24795983730025    1.80363819419879
H           0.48307610764506   -0.47939027256909    1.70700680207107
H          -0.48161326006370   -0.58109318994509    0.33572112673372
H          -0.22382380905441    0.92483012248088    1.03486252853297
