    26
        -50.47210213  Gyration_radius:  2.44446715264 Dipole_moment: 5.062
 S          -0.31374427889139   -0.63973586646440   -1.58178791150210
O          -1.15567795585533    0.38341650160261   -0.91882060749826
O           0.93624292991817   -0.77508379454795   -0.82971349323378
O          -1.02597944547981   -1.88393606763012   -1.71439012162787
O           0.02611559527814   -0.10420864121226   -2.99439256194998
H           0.82005155395757    0.48873039126671   -2.87849445757254
O           1.34941325795081    0.91269262578711    1.19882661476114
H           1.23783043528709    0.22771250230356    0.50636850277723
H           1.09235075918217    1.74048739584776    0.77076238406723
O          -0.32422274815552    0.38514282495871    3.14007575723586
H           0.35508973353699    0.67067014163472    2.46991026781602
H           0.15759391989057   -0.09187136907605    3.81743443287856
O           0.18594340843350    2.60691380485377   -0.68397071386685
H          -0.35084651266363    3.36046638905609   -0.93275921965689
H          -0.39011001727087    1.80732825908429   -0.78192152144668
O          -0.17957957120138   -2.94560550280278    0.50218939086339
H           0.69876581377252   -2.55333867448613    0.43508548220453
H          -0.54184854899958   -2.83125549818830   -0.40592589959583
O           2.04135590962568    1.30844199753648   -2.20664884837023
H           1.56058720438085    1.98514549191245   -1.69495641924810
H           2.19696309747034    0.57671898900124   -1.59293185304500
N          -1.69831039236459   -0.92743009213211    1.29137733899952
H          -1.58877425995985   -0.33625415294592    0.41772076772676
H          -1.26737112125097   -0.41191460614390    2.10805738051439
H          -2.67771989254901   -1.13669800317348    1.45345525485367
H          -1.14411886397866   -1.81653505607509    1.10545004400394
