    26
        -50.46061522  Gyration_radius:  2.54371299375 Dipole_moment: 5.963
 S           0.13247174064004   -0.41792115578615    0.24228517575589
O           0.68030453077668    0.92404601849906   -0.05946660129489
O           0.59652390104070   -0.90398055884470    1.51623293127289
O          -1.41032218176611   -0.26380958745429    0.27438960658904
O           0.39960297167444   -1.31775156771006   -0.87300490116691
O          -1.03170870507599   -1.38792666143864    3.56425494536018
H          -0.34648722555582   -1.29054080025275    2.87055760456452
H          -1.41079708450185   -2.25957801724187    3.44495723512463
O           0.61054442319151    1.76380389952341    2.48161233350707
H           0.73503101604872    1.60670088537889    1.52833096444554
H           1.01498674039634    1.00442937018027    2.91129754511178
O          -1.42227502794065   -0.35537889994101   -2.48581767911820
H          -0.82049019337459   -0.90144303455729   -1.92664906802698
H          -2.16360297934930   -0.14831105982063   -1.90946112461321
O           0.46920560730758    1.35259661810404   -2.48728322383099
H           0.56659990526164    1.30802803325848   -1.44129698002775
H           1.25368521069238    0.64934699743451   -2.78794873517909
H          -0.38459290503543    0.82018063087658   -2.64600187629322
O          -1.90972082243785    0.89905886761336    2.44602261408585
H          -1.66729554060302    0.23600146808773    1.14208288884114
H          -1.80935712442362    0.13850856242769    3.05334986104984
H          -1.08439698181338    1.42414371044400    2.56479306787314
N           2.12934124524740   -0.49183239393635   -2.88837712576752
H           2.09003749928760   -1.02138671564785   -3.74945081714265
H           1.68563746406674   -1.03861951781828   -2.14124020110125
H           3.09707449624801   -0.32836507137830   -2.64416846001940
