    26
        -50.46600995  Gyration_radius:  2.52590584837 Dipole_moment: 1.476
 S          -1.15258946502750    0.47488597097854   -1.69184823284905
O          -1.60838771435041   -0.90658680651557   -1.78865852851487
O          -1.87071215716561    1.21853563932860   -0.67867973225658
O           0.29007590011535    0.56301005251593   -1.54832374467497
O          -1.49057795518294    1.16952006333951   -3.07676578056092
H          -2.42794416973538    1.30918498849016   -2.99290988446292
O           2.09579450534796   -0.57443397282066    0.11763377375450
H           1.97787549967517    0.01993502988004    0.87213232801065
H           1.51231519145871   -0.22093531242706   -0.57923514497049
O          -1.20877199476534    0.37418642354187    1.73480585086211
H          -0.30885671311731    0.72469511927502    1.87719640046805
H          -1.53784245880897    0.82347171252800    0.92544652824020
O           1.19501658824213   -3.00014423681754    0.50955376543728
H           1.64258050811862   -2.11522660316930    0.42877294600619
H           1.43434293214659   -3.48285713631468   -0.28316585709983
O           1.10371974048586    2.78568056723782   -0.41396104826753
H           1.92731119830864    2.95940919411629   -0.87441799270892
H           0.69068135838670    2.02852040451004   -0.88856684489801
O           1.29932878422740    1.46440754465411    1.87310086315686
H           1.21854528381678    2.03917719284584    1.07054068513864
H           1.48009978133642    2.04717384993087    2.61159284037932
N          -1.26052302671226   -1.96400576055600    0.56919595803849
H          -1.44165873483727   -1.61972746585881   -0.41937100114020
H          -1.22014686155904   -1.08160075454309    1.17557118169276
H          -2.00853079493494   -2.57541316279582    0.87730742695406
H          -0.33114523546722   -2.46086254134862    0.59305322427158
