    26
        -50.47009985  Gyration_radius:  2.48246869096 Dipole_moment: 1.504
 S           0.51549354377497   -1.54108592132238   -1.18720500479964
O          -0.12581921839958   -0.58038178348682   -2.07024414880888
O           1.83344049298803   -1.12750077605439   -0.76193138141305
O          -0.35013640304072   -1.90373976101685   -0.06856785600602
O           0.72366130464761   -2.87101400533602   -2.02049833023553
H           1.61336812365941   -2.74713971533474   -2.33108365601799
O           2.20278186505971    1.40484366921776    0.00426711857712
H           2.20265067715881    0.48236311281180   -0.32191697660757
H           1.40902158280572    1.80565659618357   -0.38443931345805
O           1.82291269876006    0.80376311684296    2.50889235000533
H           2.01498038682444    1.16280034591941    1.59675016179149
H           2.53463543225396    0.18805459170919    2.69134194691880
O          -0.20163897282439    1.89256053788930   -1.27056550544170
H          -0.26087315803214    2.45001357047353   -2.04795127831690
H          -0.16675365689303    0.95845933818336   -1.60120320466612
O          -2.64207620611706   -0.81188637569589   -0.92859439503171
H          -2.31919409037347   -0.57472113465576   -1.80361391525036
H          -1.93066801761629   -1.37323204132989   -0.56894920489289
O          -2.10305746497994    1.32035982842232    0.60887133400764
H          -1.47533619278284    1.74996544324966    0.00105725208969
H          -2.51536748325544    0.60348718068427    0.07454313313341
N          -0.55419021669753   -0.26351883960889    1.99936989543006
H          -1.19781022455656    0.47186388599496    1.55095134259506
H          -0.39642543463084   -0.98824821957977    1.25517734045842
H           0.37292737748311    0.16962844551644    2.27017666544940
H          -1.00652673521990   -0.68135109967688    2.80536561049190
