    26
        -50.47115292  Gyration_radius:  2.41932570447 Dipole_moment: 2.767
 S           0.36948887984113   -0.14039257742461   -1.01482925221833
O          -0.31042612412902    0.52389175518989    0.10309490733014
O           1.77523403325267    0.21035720046802   -1.03683531754858
O           0.14839838199330   -1.58411334852710   -0.96831596737755
O          -0.32192811784070    0.33730776249637   -2.31949380164880
H          -0.24273260818558    1.32964874415996   -2.35999983682001
O           1.24659877553644    2.64940590578291    0.07775549587899
H           1.98755384760689    2.18598558078109   -0.33182423395222
H           0.59896778267537    1.93779236203488    0.26367740072695
O           2.23193169345985   -0.15073434506388    1.53843911375377
H           2.20658708658966   -0.05834598880642    0.55837269681683
H           2.00679417498243    0.71678549782098    1.88520757418719
O          -0.16643904224512    2.93437310261008   -2.15780501371835
H           0.40613173874911    3.03176766165797   -1.35877907148908
H          -1.02333239829889    3.29583755155605   -1.92142183948906
O          -2.49825940456083   -1.80100525530551   -0.66605301988849
H          -2.93350520102895   -1.35147285552171   -1.39168915335251
H          -1.54417508464591   -1.78875817024665   -0.87923390877182
O          -1.90020124637097   -0.80167162155470    1.78710608176365
H          -1.45039000795870   -0.08501575132401    1.29788839613099
H          -2.40508945577280   -1.25827459762805    1.08816183097444
N           0.37304341745319   -2.05953197859344    1.59224850749574
H           1.13775580822882   -1.36753460480985    1.79641573632714
H          -0.57619423878531   -1.64405999055958    1.87819921890699
H           0.33000596761651   -2.09287104876135    0.53806673447333
H           0.55418135184931   -2.96937100040620    2.00164672149342
