    26
        -50.46940820  Gyration_radius:  2.46183264671 Dipole_moment: 1.968
 S          -0.08180566818701   -0.71117302775634   -1.72345543081240
O           0.08391551336945   -1.57856936821628   -0.56516920985134
O          -1.41933449906408   -0.18660241174860   -1.86526543416141
O           0.93046203708394    0.33873427132653   -1.74412309842440
O           0.17076269488215   -1.62539046025367   -2.98975772090172
H          -0.38623383089488   -1.20597955283844   -3.63660314571663
O           2.57542805038340   -0.44583411908860    0.21844893539836
H           2.11028829204243   -0.13610183009474   -0.58162510035474
H           2.24725632431607   -1.33729507025559    0.35962493895981
O           1.46795404188099    1.35870419380670    1.88414782285550
H           1.21265822679943    2.01493729275271    1.21469191219262
H           2.07042940710825    0.74333785347633    1.41344661359492
O           0.46447701785370    2.56208507048084   -0.41807664016874
H           0.64327549022750    1.75185789284086   -0.95107947931411
H           0.84906538921012    3.29092718144143   -0.90711518538154
O          -1.37196649776291   -2.82704162167741    1.47635491361462
H          -1.78749340362934   -3.67653229090993    1.32522867883726
H          -0.87807561579717   -2.61606644549123    0.67022907702041
O          -2.08394992914039    1.56104321571604    0.04463067101459
H          -1.36756342776004    2.20029423573339   -0.09429511719868
H          -2.03812576448040    0.96058258123637   -0.72700634310591
N          -0.69171352691693   -0.09006812107742    1.55051807348294
H          -1.40126094239231    0.57488998959511    1.12765756664722
H          -0.35589011775558   -0.68886935959270    0.76567309214781
H           0.14071464739591    0.47248109711924    1.90334970574460
H          -1.10327390876738   -0.70435118652340    2.24956993386876
