    26
        -50.46935573  Gyration_radius:  2.47729402635 Dipole_moment: 3.235
 S          -0.67436238150475   -0.68046335177214   -1.52075032356412
O          -0.25070609927883    0.72402190366786   -1.54027080936105
O          -0.07680052494594   -1.36031838270920   -0.37406231468253
O          -2.09944564345855   -0.83960672872300   -1.59290835024121
O          -0.04463071040924   -1.34769327523066   -2.80319220260023
H           0.90163755629163   -1.23795360681926   -2.67469629010884
O           2.22569437750253    0.15702331119676   -1.86189776628554
H           1.30005792708006    0.47812011148867   -1.70462120430334
H           2.61925386309437    0.78041786586870   -2.47677710226823
O          -1.00842759483022    2.13623920874667    0.60769013585336
H          -0.77347703303440    1.86792491475205   -0.30050705402160
H          -1.83096925695704    1.65224770819052    0.79167454797745
O           3.26591386663162    0.34987673087871    0.65924811132375
H           3.81884452452297   -0.41818499652543    0.81022038329602
H           2.95379477252288    0.28299821881673   -0.26713771970010
O          -1.24275499045354   -1.41207567252570    2.28471359180273
H          -0.92629802783291   -1.88563980239250    1.50660510525669
H          -1.96935206823621   -0.86469844776322    1.95068529238811
O          -2.94045472868404    0.16629729223550    0.68905737995770
H          -2.66304806772261   -0.23105201263889   -0.16974188564353
H          -3.89906495562155    0.19223823068404    0.66751811390328
N           0.68811725768697    0.31605464936348    1.49511822157462
H           1.71096334977935    0.47457597626735    1.46975508781185
H           0.44945220975049   -0.35873298221909    0.71274170074461
H           0.34007954461754   -0.13142739385381    2.34901699680702
H           0.12598283351728    1.18981051102975    1.29251838405082
