    26
        -50.46497486  Gyration_radius:  2.6139034003 Dipole_moment: 5.212
 S           1.36205588165835   -1.35627038903942    0.59341104287981
O           0.29394993375643   -1.70188039926724   -0.35048290340089
O           2.33378420327970   -0.46317570383260   -0.01673697227013
O           0.81843148938722   -0.87410812838135    1.83707599062963
O           2.15497859212745   -2.69524172073103    0.89076630930598
H           2.85672893864717   -2.65213547722206    0.24897439411687
O          -0.83131825588414   -1.65442451633902   -2.77954807622577
H          -0.32232893395924   -1.68775329085079   -1.94510628272121
H          -1.21122489446981   -2.52876799792256   -2.88343852352655
O           1.31689009158021    1.89390199126652   -0.37131909757673
H           1.77248107473627    1.02039662062486   -0.24317272343643
H           1.80023896328558    2.34686043133432   -1.06365515890230
O          -1.47114644231059    0.76311214058943    2.53250475299124
H          -0.70042048293026    1.35236152725760    2.68765757049669
H          -1.12744437827061   -0.11315219917194    2.74039032183177
O           1.01649874632038    1.76173407425280    2.45763085102161
H           1.17032173746102    0.80466662578365    2.36414864254840
H           1.21718400122635    2.13324374253995    1.59014279482451
O          -2.59034881225260    0.32373962696369   -2.30362793902002
H          -2.61616505980951    0.91628012965040   -3.05583077253857
H          -2.00625022101168   -0.42594591589110   -2.56021026499776
N          -1.06766668030928    0.58127228519586   -0.07824657746211
H          -1.81415644685505    0.64154064976314   -0.79883275918367
H          -0.31907371001769    1.27018945007717   -0.26668575284127
H          -1.41105383956108    0.70834371264660    0.91626651454329
H          -0.62494549582530   -0.36478725929981   -0.14207538108670
