    26
        -50.46980688  Gyration_radius:  2.503321728 Dipole_moment: 1.376
 S           0.85482710684738   -1.25443958655847   -1.40157276339230
O           1.40014316213960   -1.16372067381306   -0.04699279145438
O          -0.40578684130616   -1.97014758176210   -1.38418808790993
O           0.80205439066313    0.03237403012331   -2.05967711542425
O           1.86871653722914   -2.13250262445885   -2.24280251200099
H           1.71808649060378   -3.01422489868778   -1.91659519503831
O           1.89345471831438    0.97410652259455    1.58870505876077
H           1.97648012506762    0.14798870636237    1.08507353926111
H           1.44940051669914    1.57918665182282    0.97205218882103
O           0.13214516323529    0.31217666435790    3.44429637021365
H           0.90219630489101    0.57972187024319    2.87775938428877
H          -0.25999711438589    1.12628666755502    3.76367546130197
O           0.52242632408519    2.12706900802851   -0.52799122819260
H           0.81664663156534    2.89190087905746   -1.02528526839949
H           0.68556152266386    1.34333639128861   -1.11034437040913
O          -1.95233168232550   -0.08183761281617   -2.41432717800997
H          -1.22131466390395    0.36179408813523   -2.85633546900011
H          -1.55278582783391   -0.91395923442032   -2.09260382975643
O          -1.96935617560275    1.08173943990359   -0.02604499805933
H          -1.19203930315385    1.65567115064803   -0.13735089887542
H          -2.14707396293784    0.71019819274531   -0.92382933659540
N          -0.87689180819364   -0.89781996567997    1.29755990952564
H          -0.61200472758055   -0.53845821748271    2.25094970844259
H          -1.40162393738962   -0.11911688661974    0.77309160227655
H           0.01080007632356   -1.09822533355209    0.77276464546757
H          -1.44173305570149   -1.73909764702127    1.34001319413081
