    26
        -50.47246607  Gyration_radius:  2.41090232778 Dipole_moment: 3.179
 S          -0.09559040838706   -1.11263527042458   -1.44811736881818
O          -1.44422695530803   -0.65520546307924   -1.12338210242226
O           0.71378575113509   -0.01864861912416   -1.96532381283439
O           0.53703461428033   -1.83562617957271   -0.37150646103175
O          -0.26829462456201   -2.14222526048726   -2.63487373132181
H          -0.73404735445508   -1.61276044687647   -3.27169925056602
O           1.76896086216158   -0.58899203855192    1.67094221441191
H           1.47984300995177   -1.23132156803698    0.99625949944274
H           2.23070150438940    0.09600409825353    1.14223114760409
O           2.58121500105554    1.05896694461524   -0.26818632214388
H           2.11430190902570    0.53104665712449   -0.93890272359639
H           2.19212610957883    1.93719281893426   -0.33169608846301
O           0.32347319379109    2.53378891520867   -1.35102997435319
H           0.44057272237546    1.60485494799504   -1.65278430827896
H           0.08673359608517    3.04343390152415   -2.12682275810761
O          -1.68009965123590   -2.09737807128057    1.08377059268353
H          -0.83396609376783   -2.49322241634452    0.82722639168127
H          -1.92057609214804   -1.60000457267733    0.27881650017734
O          -1.53963056455508    1.56591249412249    0.36246956305993
H          -0.89127856123293    2.12447693392807   -0.10404924320570
H          -1.66334377457142    0.79605302752071   -0.22942113648878
N          -0.68335478648066    0.03364544078717    2.32494998472696
H          -0.89576805671108    0.26629420169605    3.28797424715121
H          -1.01236723354251    0.78619579932232    1.65282079171207
H           0.36434431903659   -0.13558282304239    2.17247717373332
H          -1.17054842591248   -0.85426344153119    2.01785720524869
