    26
        -50.47679058  Gyration_radius:  2.36804410279 Dipole_moment: 3.215
 S          -0.79232870069659   -0.17227214535558    1.31993086948667
O          -1.01935271994242    0.68852811079244    0.14763592714343
O          -0.04595959006720   -1.36498219138824    0.91771271766263
O          -0.11740298456883    0.55011960495127    2.37793066913295
O          -2.17402855259275   -0.62377489297678    1.84541899165053
H          -2.67168843600099   -0.85224645891128    1.01691726626215
O          -3.04424971152008   -0.95145524368658   -0.57544465280846
H          -2.44646460907017   -1.60645383385794   -0.98559362331651
H          -2.61151343500969   -0.09752987173522   -0.71149244344001
O           0.49843631957298    2.76076350037450   -0.63795113093861
H           0.71424255991850    2.41991369355650   -1.51166642548202
H          -0.23077521192110    2.19233627361111   -0.31934653850477
O           2.33140763509191   -0.65095848574084   -0.06628226223202
H           1.61099895973338   -1.10683597851351    0.41364399969042
H           1.91614653639263   -0.42993438543115   -0.92753397853246
O          -0.88497879274317   -2.43436465550182   -1.30903338030577
H          -0.52305751126066   -2.09161040771628   -0.45415471920464
H          -0.83438403756323   -3.38972156953739   -1.25640167730285
O           0.51030529691474   -0.01252388960585   -1.93757880287893
H           0.16946485251778   -0.86474671647362   -2.23222861665717
H          -0.08703943532698    0.24565527946272   -1.20584647812792
N           1.97810749313187    1.58293087976160    1.23221737284064
H           2.70188710900971    2.02919714675923    1.78425594620532
H           1.17292106685188    1.24192791008266    1.83689279860426
H           1.55594605668475    2.23101438204460    0.51875530577078
H           2.32335984288567    0.70702394525978    0.71924287518588
