    26
        -50.46061524  Gyration_radius:  2.54383782291 Dipole_moment: 5.965
 S           0.41154325231513    0.01317178927493   -0.28523062898631
O          -0.09473376879648    0.59340435420985    0.97932493038585
O          -0.05115261585528    0.81479291389644   -1.41140329720628
O           1.83847328304862   -0.17856503515852   -0.24470414314063
O          -0.29352839101676   -1.35815256828281   -0.45080873531534
O           1.64391332966492   -0.72125171268039    2.53332304127108
H           0.97588839573078   -0.14728387738789    2.11706799255322
H           2.45485705745290   -0.54884152007437    2.04593560409760
O          -2.52609748691044   -0.03457538015994   -1.39480640797988
H          -2.45496668925711   -0.96841399573203   -1.17683704637342
H          -1.60225784658531    0.24074863590562   -1.60371729650655
O           2.98594425635611   -2.57482775487316   -0.39269602350075
H           2.68065418153790   -1.64383714465403   -0.37686639711497
H           3.04715829066277   -2.82060150859174   -1.31659999630831
O           0.83568421041902   -2.88158173565791    1.19897870754843
H           1.09809103774233   -2.23396880846579    1.89372918036713
H           0.11945503114052   -2.01840195655221    0.22908261378477
H           1.65984441894269   -3.06056887167684    0.70288767966198
O          -2.33493835591045    1.56528879834719    0.57974383795212
H          -2.64047249470699    0.91198438728739   -0.13961960275527
H          -1.41896629437755    1.14768776581882    0.88318748637442
H          -1.97721080400782    2.42039484473779   -0.00486570339389
N          -1.25356556968246    3.27289659612129   -0.91459890570711
H          -0.63209675939962    2.54251278493518   -1.28120551625202
H          -0.69155070732892    3.99737988738184   -0.48781858305710
H          -1.77996896118079    3.67060911203681   -1.68148282039404
