    26
        -50.46942761  Gyration_radius:  2.43999437423 Dipole_moment: 3.757
 S          -0.02610022875792   -1.15309828404355   -1.34627863986136
O          -1.19713522431234   -0.43469581632851   -0.84492488356697
O           1.17575192104641   -0.68857689913803   -0.61236606284231
O          -0.17714852874191   -2.58194099986215   -1.25001433192511
O           0.18437908797455   -0.77527890558232   -2.83197378361494
H           0.31826484998345    0.20818704970217   -2.86747792458730
O           0.72625185132985    1.78871508673321   -2.83644758768687
H           1.53852987031472    1.89720644122159   -3.33480906467089
H           0.94646232013406    1.99244572548009   -1.89426041805133
O           0.34747165636929    1.15037653733567    2.58589788440266
H           1.06509230699360    1.59071889307549    2.11568989546356
H          -0.45720301325778    1.39604876386155    2.09482979041673
O           1.17873578422009    1.92151632437575   -0.21568582868033
H           0.25562657564583    2.05832073746697    0.05501616697468
H           1.27744986492672    0.94841680937919   -0.31571555963620
O          -1.63459304648123   -2.50871979680790    0.91665451132596
H          -2.17073812757633   -1.76878359101719    0.61045841465292
H          -1.16354863359800   -2.78933212364354    0.09768496847054
O          -1.44201016922156    1.67046021524142    0.61529742817247
H          -1.38395474076115    0.85257064792000    0.05170516387469
H          -2.23589574939373    2.12754703017923    0.33612714581007
N           0.58450865960425   -1.39260733551283    1.80522300586457
H           0.95955201891287   -1.18062094426439    0.82719039616904
H          -0.35175000228216   -1.86823913520299    1.63722420384522
H           1.21496268729110   -1.99987897727164    2.31762150724515
H           0.46703799953612   -0.46075748346093    2.28333358241626
