    26
        -50.46900094  Gyration_radius:  2.44989715024 Dipole_moment: 3.120
 S          -0.38329271007945   -0.25237755169737   -1.83891759623646
O          -1.54448626717908    0.47864251190262   -1.37386291811778
O           0.82846738870212    0.54666061609825   -1.85754993789872
O          -0.18944153566857   -1.50015135892657   -1.11057251272877
O          -0.71244064715226   -0.63508612000743   -3.33816222946760
H          -1.64759316587683   -0.46812234868146   -3.32095610663878
O           2.95903671562009    0.57612658111751   -0.13788042076078
H           2.41755991357461    0.46076118738324   -0.93673081053366
H           2.72010585005379    1.44772185794831    0.19433040310201
O           1.49964431842735   -1.37248712072038    0.97695119073835
H           2.17651827321026   -0.71364582562581    0.70876334181962
H           1.00180339722610   -1.55972169772259    0.15656441393351
O           0.91536646874031    2.67465300356822   -0.29673788146070
H           0.84974082683667    1.91996214828233   -0.92692775473707
H           0.77125992048976    3.46696419670391   -0.81605102307647
O          -1.97240924786362   -2.27782474485605    0.64909754281642
H          -1.81088546716231   -3.22096596064787    0.71420275483874
H          -1.40438657467654   -1.96360907428335   -0.09413177850349
O          -1.25477163342604    1.67505802794403    0.96644171855892
H          -1.54149231324980    1.26730972689375    0.11977717832949
H          -0.45592181253840    2.17960473698361    0.71880444300072
N          -0.64585699802006   -0.54239552440202    2.20549950969624
H          -0.89529024620780    0.41696620722368    1.79633446333716
H          -0.68981085229555   -0.54373229588791    3.21765748406314
H          -1.31116592033509   -1.23273722291951    1.78521143011471
H           0.31974232883992   -0.82757394566860    1.83884509580292
