    26
        -50.46747692  Gyration_radius:  2.44648562725 Dipole_moment: 5.047
 S           0.30844425017344   -0.30855623418949   -1.87952441114536
O           0.79998255103751   -0.55823978173404   -0.53598736282733
O          -1.13273735899248   -0.56017733776788   -1.95266820690260
O           0.68432712102965    0.97591417778179   -2.40799624044278
O           0.99410983023844   -1.41015978588024   -2.79482927498604
H           0.97971894781691   -2.19447528620895   -2.25178254698865
O           2.11199766567251    1.28802319001630    0.83019593096677
H           1.76551749090087    0.59367840824645    0.23122207135434
H           1.62118840525806    2.08087316674250    0.57909933926195
O           1.32102783937426   -0.23037772418655    2.80349685876714
H           1.64959840695871    0.46051299487973    2.16535196526809
H           1.96736792036860   -0.93675876171041    2.75296597952664
O           0.28182459595552    2.83777399658395   -0.62488159227330
H           0.14132420663385    3.67609919015926   -1.06837442272448
H           0.50698979179508    2.18790651786451   -1.33582791587198
O          -1.23562461226889   -2.60782607142202   -0.37719179517195
H          -2.08562486442037   -3.02915360873649   -0.52109397322685
H          -1.19699690686237   -1.85361853141471   -1.01828265588001
O          -1.73062019566594    1.12334200368208    0.02572725095084
H          -1.07644096726703    1.84102019273299   -0.07469942465624
H          -1.65121767346074    0.58317931085317   -0.78543565509409
N          -1.01271279303514   -0.80480090123413    1.66941797261676
H          -1.29101296068392    0.04886435195715    1.08987385297502
H          -0.94946435080726   -1.59201462992242    0.98833113024511
H          -0.06461650128032   -0.61746534407668    2.10740570820814
H          -1.70634981846575   -0.99356348301591    2.38548739804656
