    26
        -50.46789118  Gyration_radius:  2.61261663146 Dipole_moment: 2.086
 S           0.56199254906764    1.32291097222091    0.71958795517374
O           1.72447410509096    0.84933974479975    1.46581971436563
O           0.51363767570796    0.70861608405700   -0.61040549626454
O          -0.67873297524540    1.10016030726609    1.43294805978970
O           0.71286793481026    2.86329874972434    0.52017211952575
H           1.64381973329681    2.97283119293147    0.23494367083787
O          -1.50410315242740    0.02342716627579   -2.35760921070412
H          -0.72180177171578    0.44243535600264   -1.96340270918583
H          -2.17455796235522    0.05731430353659   -1.66135235655511
O          -0.71243163789196   -2.54413634682803   -2.52429841166015
H          -1.08368147865806   -1.63512742890088   -2.62028629692730
H          -0.05753490790378   -2.63757969198181   -3.21678639893148
O          -2.67821574755530   -0.06132112119193    0.23288669592826
H          -1.97576103287159    0.47530421235636    0.67953991530805
H          -3.50115215775792    0.16035177049071    0.67016641051643
O           3.31385415512436    2.52167351911437    0.21900423772699
H           3.88821483510380    2.97267225295056    0.84217177300213
H           2.96541897527720    1.73351866376966    0.68382033317717
O           0.74555025291023   -1.45771795887206    2.34569712582957
H           0.11293162154878   -1.14247835375759    2.99509948950103
H           1.23725324271551   -0.65368182051992    2.07036938951574
N          -0.46553576935115   -1.65683278332604   -0.02418500311492
H          -0.41598865571730   -2.32548420891099   -0.81753430994029
H           0.00149934716224   -0.75508974313373   -0.32948570029556
H          -1.45147026646062   -1.40591966032182    0.14573426288652
H          -0.00054689190792   -1.92848517773648    0.86738473047034
