    26
        -50.47229294  Gyration_radius:  2.48018181178 Dipole_moment: 1.995
 S          -1.90421527500168   -0.25451936516207   -1.22575294198086
O          -2.63038371041627   -0.86092633491972   -0.12690415315207
O          -1.20821117391299    0.95991743242657   -0.81122905608915
O          -1.02120461799742   -1.16713244682610   -1.92282248386412
O          -3.00389808757690    0.19074260859961   -2.27657042471644
H          -3.70333808307877    0.48476256384980   -1.70260647330506
O           1.74127614468548    1.42502381415466    1.54767401967242
H           2.10266981909073    1.98981101722280    2.23094673376018
H           0.75483552829185    1.38032117141872    1.70892083418421
O           1.78381369036140   -1.27145308672358    0.99639836408355
H           0.86706566559714   -1.49227957827475    1.24821920641705
H           1.92359179217812   -0.35811251793257    1.30552393554597
O           1.30467664612542    1.86500075341949   -1.14385863875118
H           0.33507952468568    1.75128739609364   -1.11208344173206
H           1.58299946625562    1.88853117026130   -0.21054267238847
O          -0.86225571475513   -1.65711925959703    1.58929417228559
H          -1.16245233224710   -2.48741429702136    1.96235561602241
H          -1.54005973034670   -1.40312478951072    0.91186379552238
O          -0.83454899936936    1.13684933347552    1.81681055263562
H          -1.08797291692115    1.16698501225235    0.87057837109193
H          -0.94809259239534    0.21021096440082    2.06893437304973
N           1.52661237888779   -0.71468467006106   -1.56710612706719
H           2.15399782716108   -1.11979654354499   -2.25170467257886
H           1.58581316435411    0.34834841700631   -1.53658706722537
H           0.51744652654882   -0.94838038346095   -1.78692221721364
H           1.72675505978203   -1.06284839156814   -0.58282958420802
