    26
        -50.46379213  Gyration_radius:  2.52764295182 Dipole_moment: 3.686
 S           0.51891521821222    0.45429093010611    0.31087734367946
O          -0.97016974585669    0.90930318904979    0.44677213335284
O           0.44934775018362   -0.80895551450436   -0.48230145863985
O           1.17396911870493    1.48451908166533   -0.45468858153465
O           1.06603870781480    0.21193105320379    1.62134039864125
O          -0.10094062553026   -2.37771291516556    1.61895143568192
H           0.55977457866499   -2.09885192089455    2.25950978960993
H           0.15635346205807   -1.93855576529283    0.78801546913263
O           2.18621625199315   -0.58491555039271   -2.55823602712969
H           3.04813171545507   -0.34489348349588   -2.21390949670873
H           1.63083388964761   -0.76896884662145   -1.77714745815598
O          -0.29019998552719    0.56151341018937    3.88212818190535
H           0.31985871375200    0.44523213609367    3.12380438792552
H          -0.23950840730827    1.48701647449615    4.12446222589754
O           0.70739709749146    1.60703967216088   -3.02753877239544
H           1.33972413788247    0.88307494771660   -3.21702508921565
H          -0.51456949067221    0.83485350796653   -2.68167894323387
H           0.93265406521941    1.84192721746364   -2.09666137003441
O          -2.00627822486035   -0.60074586279345    2.17465937581379
H          -1.47891157768514   -1.41933293395888    2.02195322699571
H          -1.62065183441376   -0.20854444394096    2.98446682866882
H          -1.43524409051866    0.31599688145409    1.15330946149826
N          -1.23268445085654    0.17759938438842   -2.16056723343520
H          -1.81091813409021    0.73575161337448   -1.53118373221242
H          -0.59947639702103   -0.40532192607899   -1.52088577275933
H          -1.78966174273831   -0.39325030619449   -2.78842633334662
