    26
        -50.46978513  Gyration_radius:  2.50682109235 Dipole_moment: 2.152
 S          -2.01660472464611   -0.73493517765656    0.08535439360428
O          -1.65133393819818   -1.97280797001357   -0.56676422899886
O          -1.59565162870768   -0.68696488937649    1.47592814017628
O          -1.59028642269809    0.44178094175911   -0.66488351991347
O          -3.59909892750483   -0.67287001718538    0.08629639011108
H          -3.83644743242642   -1.55241633111025    0.36042278903889
O           0.96307897398233   -2.22442835379895   -0.92468256488943
H           1.22840963440682   -1.99244129319142   -0.01773587362459
H          -0.00792463450010   -2.34859549392990   -0.86183699654193
O          -0.94055392484095    1.99843619699168    1.41412784896934
H          -1.22490377084723    1.61924899526439    0.56359642204388
H          -1.25165394599100    1.35483177179764    2.05946434976565
O           2.24258057525378    1.96955341464549   -1.15794368570446
H           2.15426453240697    1.76515435617154   -0.18226107398787
H           1.96918274884653    2.88354479165710   -1.25154856371041
O           0.94926777508997   -1.23361190475535    1.61945196377589
H           1.10462889803702   -1.70171649918935    2.44150686242078
H          -0.02141481896742   -1.04111980085712    1.59054685413102
O           1.69713175390953    1.42565943991359    1.32481730508246
H           0.78582386801383    1.77848453188297    1.42056853889644
H           1.61021498659649    0.46754039084335    1.45331610326701
N           0.61334362777346    0.09943984348825   -2.07854068336310
H           0.50787346431441    0.07392065367396   -3.08662277257312
H          -0.31030036842968    0.29216627342540   -1.61336296136079
H           0.91535006582847   -0.85660721584751   -1.70483107004361
H           1.30502361329941    0.84875333538488   -1.78438397657401
