    26
        -50.46814369  Gyration_radius:  2.48742136191 Dipole_moment: 4.359
 S          -1.24912274840942    0.12758680535292   -0.59153700626792
O          -0.57643920879974    0.99443220832850    0.40351036710850
O          -2.55986827594451   -0.27086749898815   -0.14598737642541
O          -1.39862963068822    0.94644402506301   -1.88163417335597
O          -0.38878040572440   -1.03070936556960   -0.86550861630717
O           0.77119703404643    3.24523703276031   -0.01900532704139
H           0.13111295781740    3.95870472050168   -0.03597608082365
H           0.27565249633472    2.44038388537754    0.23925523695622
O           1.45086082792462   -2.14169069108362    0.71007303467482
H           0.71844488106919   -1.95105414823497    0.08618687527944
H           2.22548799854561   -1.75022506406888    0.29390073928289
O           2.00705706259705   -0.52331323528253   -1.77408043260080
H           1.08456906236930   -0.71507851329030   -1.47527608058989
H           2.12524945460834   -1.00595405519431   -2.59400597116055
O           0.92490246597844    1.89440987281026   -2.34310670594876
H           1.04184377301101    2.50985330957528   -1.58964185814797
H           1.51640713562016    1.13678334199427   -2.16532171214449
H          -0.48848403517930    1.33367004859455   -2.11749062579487
O          -2.35715042864021   -1.87294627289625    1.88522802942657
H          -2.33958925731955   -2.74796907786421    1.49252928515144
H          -0.95528756157251   -1.21319749865141    2.32901024386304
H          -2.56838693609496   -1.25349188820978    1.13871343396233
N          -0.05242843695682   -0.66108132811508    2.30842205780538
H          -0.23186645458014    0.12301598252945    1.60010762472049
H           0.69470290010800   -1.27141796936636    1.88903903404817
H           0.19854532988157   -0.30152462607090    3.22259599432635
