    26
        -50.46794313  Gyration_radius:  2.46410383269 Dipole_moment: 2.597
 S          -0.64704285907894    0.02387001394229   -1.72673516269245
O          -1.12754697815997   -0.87517532148549   -0.68863951528412
O          -1.20546771232118    1.35428342137162   -1.65246708095270
O           0.80903147647844    0.03761246620556   -1.77967293268634
O          -1.15254569704049   -0.60287762351749   -3.08987625020600
H          -1.07493339194771    0.12562979297307   -3.69719604999362
O           2.89818554860985   -0.64849450505251   -0.23537553610996
H           2.26295403559254   -0.51657594701908   -0.96484282249706
H           3.30973911253561    0.20844220350447   -0.09792878135987
O           0.28011137275334    1.49524617022321    2.10907614027095
H          -0.66767416584734    1.55276040381480    1.86226559563068
H           0.74541474694836    1.92426154791279    1.36230783856406
O           1.16242860974444    2.25570292881983   -0.33646499918946
H           0.45433026998404    2.83044687627718   -0.63864611343234
H           1.09407349575071    1.46871807840559   -0.91006547050569
O          -1.19294107468244   -3.00362237954150    1.13108904450308
H          -1.34832767372725   -2.39819496078286    0.39201368667893
H          -1.71271732664351   -3.78819469236493    0.95342656693705
O          -2.09744435591052    1.30068835633348    0.86906303502834
H          -2.41159447215643    0.39396936571903    0.89754387491296
H          -1.84717534031975    1.44817448971390   -0.06333732358237
N           0.70736481139282   -0.93477460807289    1.28456067013668
H           1.66801154050851   -0.97675197038098    0.87426945139884
H           0.48795011983807   -1.74590367899149    1.85969815882176
H           0.57509659988046    0.00059925443571    1.79753668021929
H           0.03071930774287   -0.92983967236797    0.48839728538699
