    26
        -50.46478295  Gyration_radius:  2.64961284575 Dipole_moment: 6.069
 S           0.11965839548268    0.72238909438461    1.00483788085811
O           0.14139343549859    1.67306204951367   -0.09642483156518
O          -1.17122773307249    0.05742038108084    1.12756424064359
O           1.20793773304117   -0.24885235769346    0.82135214459009
O           0.40874157039384    1.46895312860895    2.33285655323771
H          -0.48688746871884    1.82402759197598    2.61669880154255
O          -1.64597664679635    3.55914889151969    0.36217144537241
H          -1.00945634293279    2.86086857175279    0.08718971977292
H          -1.13957758061470    4.37175070469820    0.41132037343899
O           2.11468663743919   -2.73346860674572   -2.11590593511594
H           1.72361512813726   -2.87396257776983   -1.22790456918665
H           1.74544108626601   -3.40943153191786   -2.68631117496435
O          -1.24221509861771   -1.26796882316544   -1.13232985446310
H          -1.39792162957337   -0.72294728854457   -0.32556084181247
H          -0.90373221616983   -2.10414638964529   -0.78449913847827
O           0.75279858490170   -2.76987688685422    0.23551627817918
H           0.91407052436630   -1.84255652008053    0.53979298646025
H           0.91221353191557   -3.32353707276868    1.00122153892110
O          -2.05056436927131    2.14726939936418    2.60885616292514
H          -2.10452714032176    2.79625155111633    1.87463249683737
H          -2.22173824944122    1.28846284688487    2.19418810926562
N           1.08854560612383   -0.27856811826792   -1.80871832681600
H           1.64657189579635   -1.07860707673490   -2.17536065049702
H           1.35256659934095   -0.11036606532015   -0.80293564965492
H           1.17902582848034    0.58338776931264   -2.33583332113953
H           0.06655790834801   -0.58870266469701   -1.72641444831915
