    26
        -50.47322656  Gyration_radius:  2.41299182174 Dipole_moment: 1.526
 S          -0.36402772991502   -0.92483176929877    1.53929651325547
O           0.14775879330517   -1.95706124651163    0.64905745460580
O           0.66496212357694    0.05554764596548    1.86442620307918
O          -1.58994778636597   -0.32748310160381    1.06235086697697
O          -0.71756644176670   -1.64541011591588    2.90038062794506
H           0.14541466158599   -1.93167978872115    3.17705908041918
O           2.17550923034913    0.97904301301963   -0.16881670556671
H           2.33752782028562    0.14532356637881   -0.66005308671952
H           1.80456801383846    0.68246629588002    0.68411080523790
O          -0.65645511504111   -2.06128228905595   -1.88332925169627
H          -1.27276451005081   -2.78243541283227   -2.01793526297655
H          -0.42167151962692   -2.07644471389917   -0.92874259120513
O          -0.86178933978617    2.19888477390416    1.69154744031108
H          -0.17457769409384    1.54664512406895    1.93891835212886
H          -1.64911960301956    1.64709999968782    1.59919661343629
O           2.13386691146592   -1.50441853380490   -1.16032918455380
H           1.58678292911353   -1.77650339330202   -0.40228528121305
H           1.58379083592185   -1.67332995104745   -1.93144469067358
O          -1.70404300472512    0.40210032820139   -1.50434908628115
H          -1.33577661630919   -0.40851650940224   -1.90358361600858
H          -1.85463080666917    0.14952649446244   -0.57101044174300
N           0.00719168341685    2.27960315027811   -0.82092729016698
H           0.07873759208046    3.13339248699573   -1.36174064655178
H          -0.66225215628830    1.58124964541225   -1.26055441592693
H           0.95975037319608    1.80847232875937   -0.68502768245778
H          -0.36123863447163    2.46004195238424    0.15378529634514
