    26
        -50.46896872  Gyration_radius:  2.54033442587 Dipole_moment: 0.610
 S           0.24160407951042   -1.70217190314393    1.04395688344132
O          -0.79681595287980   -2.36296269623212    0.28900247955486
O           1.31915659678227   -1.22045366084998    0.18218393761831
O          -0.25940258223467   -0.64419620969290    1.90745812528722
O           0.87631326096092   -2.78406282028769    2.00616697558249
H           0.99283054040206   -3.52480699288446    1.42025443309256
O           2.61710551242581    1.21341379494142   -0.01427708145790
H           2.36953490295148    0.28390633706753    0.12315783736548
H           1.99229116599439    1.72501698904966    0.51215617998747
O           0.00773188278211    1.85038710533253    1.08763791013799
H          -0.76545380735588    2.30000256180991    1.43511456308463
H           0.00633427286765    0.96149997766750    1.50875732762200
O           1.94573150317108    1.62455921253290   -2.59620916633955
H           2.62940300785146    1.31297260882650   -3.18967380999944
H           2.32572844618347    1.58021821979190   -1.68904387827864
O          -2.73513231192253    0.16597066661980    1.30087175903452
H          -1.86021016983132   -0.17922862752921    1.57480313247767
H          -3.38070382530156   -0.30709430753159    1.82777282244268
O          -2.38493546497212   -0.80256611064108   -1.22424359910874
H          -1.92868784865511   -1.56946546380827   -0.82781902100195
H          -2.77073268644879   -0.34656653037720   -0.45309601739246
N          -0.10225398430235    0.49376115553924   -1.27530800212506
H           0.41860449550030    0.90050259503811   -2.07258181181856
H          -1.05321022797163    0.08205725413091   -1.49199246022321
H           0.48247600351403   -0.26566078501114   -0.85413768669591
H          -0.18730681901490    1.21496761964081   -0.53091181228877
