    26
        -50.46488369  Gyration_radius:  2.51593524641 Dipole_moment: 4.275
 S           0.15515671480594   -1.98039252946258   -0.52631739931774
O          -0.13424407966378   -1.18674916751599   -1.71049931562037
O           1.56019483682874   -2.14190704068046   -0.25657459518027
O          -0.60471318169272   -1.47277057895995    0.61779362501278
O          -0.39698732924285   -3.43803426469293   -0.81082255691360
H           0.33914101213794   -3.94640146873298   -0.48983457488280
O           2.61348405368717    0.17571696561806    0.67092972914895
H           2.32172098471982    0.71932069074166   -0.07652497263023
H           2.41655561154771   -0.73940702317038    0.40208814867699
O           0.64095111006921    0.13199280977456    2.46253503655260
H           1.48759451586761    0.25484641541831    1.97748621307288
H           0.18949772530385   -0.57162564532730    1.96763694054992
O           1.52188411598537    0.88985111998791   -1.80116726131897
H           1.00622771962937    0.05656929129745   -1.76657551558766
H           2.25475023549921    0.72514794337005   -2.39699185091337
O          -0.90797462307144    2.17613514080497    2.09304033629745
H          -1.28317943313951    2.40547292181129    2.94397063870592
H          -0.22479620785107    1.46377572714874    2.27878017653710
O          -1.29093506869777    1.19338420916803   -2.24511646479898
H          -0.44429755130650    1.65757226813109   -2.20877057894949
H          -1.04136146371092    0.25552709526941   -2.33235927711532
N          -2.05981429690129    0.68184580859148    0.24341474246669
H          -1.53112818664855   -0.22751632091373    0.38158635590833
H          -3.05632640037601    0.52968121167949    0.35385671343165
H          -1.69417676761029    1.36881825104164    0.96333619445323
H          -1.83722404616124    1.01914617960606   -0.73490051759606
