    26
        -50.47508722  Gyration_radius:  2.41604999383 Dipole_moment: 4.307
 S          -0.22165842174707   -1.56845339559385   -0.77425612328715
O          -0.65124382444115   -1.54018897403471    0.63470370465880
O          -0.33008979029525   -0.22628805547978   -1.34750527506919
O           1.11204691101608   -2.09964835430970   -0.91483731275042
O          -1.21104014302351   -2.48501249341862   -1.54140215010108
H          -2.08309299800871   -2.11798716056619   -1.27684289335012
O           1.60096230462049    1.62008092644521   -1.07527668221443
H           2.33274670281070    1.08427028477719   -0.74639787052555
H           0.93062089738219    0.97122933191698   -1.36240823793590
O           2.88534194424550   -0.57257041610581    0.21113051832974
H           3.71840235415164   -1.04637120411405    0.23472467380219
H           2.25109025750296   -1.16833367441944   -0.26983879820353
O           0.05042076686386    2.39676042443851    0.94022093887962
H          -0.83081210020422    2.19588874078810    0.57047325828328
H           0.66399279615075    2.35636553601554    0.16820588352225
O          -3.12540547052525   -1.18054923937913   -0.27321169997717
H          -2.45448284695997   -1.35427061789894    0.40626353655023
H          -3.12186136242923   -0.21735697233091   -0.37961641188702
O          -2.10087930771636    1.45459891168540   -0.49403553276380
H          -2.31724604501739    2.03441349888238   -1.22666866195427
H          -1.43116326752889    0.81248433345516   -0.84531051680005
N           0.87714392389778    0.13137218394237    1.90390763386797
H           0.52427361795842    1.11555179139281    1.61397420074307
H           1.79549846433128   -0.04523208964729    1.45439081538537
H           0.92927869902611    0.02925225674367    2.91133436617089
H           0.20715591794734   -0.58000559319794    1.47827864662135
