    26
        -50.47304678  Gyration_radius:  2.48625583687 Dipole_moment: 2.148
 S          -0.12850334259150   -0.98688371202999   -1.87513066983580
O          -1.51167474749524   -0.87792190030338   -1.42590044554953
O           0.26657824737570    0.13190500249597   -2.70623702572509
O           0.78439704101633   -1.25288709804437   -0.77978169495885
O          -0.06579591925630   -2.27080589730765   -2.80377724172407
H          -0.48509752300345   -1.96505062557881   -3.60114814725665
O           2.26550483075483    0.73703731180622    0.24635099891863
H           1.86094511291676   -0.05647441064686   -0.15422229422918
H           1.83991180370704    1.48164665863069   -0.20515015713006
O           1.53206283243022    0.47833737990348    2.73616665747465
H           1.87105450786628    0.66342372928374    1.81537371829965
H           2.07484063080799   -0.23854554895139    3.06768078025338
O           0.58785725568197    2.29438086476783   -1.31051367514293
H           0.68991224068175    3.04558313260046   -1.89696772090716
H           0.50399548607809    1.49707056917942   -1.89460632602854
O          -1.05199320763992   -2.27985632631125    0.77579606873647
H          -0.16781514524584   -2.17498179407919    0.37449071592134
H          -1.62141079654015   -1.98057869037542    0.04559987138684
O          -1.62451126399373    1.36532498971397   -0.01097839470632
H          -0.87888094160419    1.87566032029215   -0.37459130390197
H          -1.71738507344102    0.58999328669946   -0.60465039841087
N          -1.01242895217078   -0.01296091340683    2.14264036966309
H          -1.26998424898629    0.64995578280988    1.34655653012094
H          -1.05897423000991   -0.99014124697349    1.72638250449217
H          -0.02243422038565    0.18788665922218    2.45083413931952
H          -1.66017038695601    0.08888248662140    2.91578314092049
