    26
        -50.46949022  Gyration_radius:  2.45738927815 Dipole_moment: 3.134
 S          -0.55263954877644    0.74815593502543   -1.38654521906300
O          -0.85450688572996   -0.64461045019624   -1.06505771424589
O          -0.53501952016624    1.57406493454115   -0.18282874746816
O           0.64775778087796    0.88675991794867   -2.17532437770864
O          -1.74871654456071    1.27297777500662   -2.27538322634687
H          -2.53291978779209    1.24486691807999   -1.72186945126734
O          -2.04982400286484   -0.39877001396122    2.78839204853698
H          -2.68506306496357   -0.99016497688636    3.19466860811018
H          -2.49519737641375    0.00458157584416    2.01752203012806
O          -2.86628343554110    0.49611269089776    0.32299828186659
H          -2.50219856653736   -0.27964770580689   -0.12860793010037
H          -2.10829836389833    1.11200752950600    0.35726934044697
O           2.05872167767530    1.92618017257250   -0.01827391657937
H           1.08366390400725    1.96336807027673    0.09125683897384
H           2.16775743883574    1.91963463389056   -0.97636888837207
O           1.78223894694093   -1.46446485139814   -1.81885910536562
H           1.45411330472442   -0.58956312489965   -2.12299153665755
H           0.97861066624442   -1.98167199073927   -1.70472276874955
O           0.00518752043570   -1.44247130918256    1.34110661723275
H          -0.36378825408439   -1.22445246732849    0.46094974731412
H          -0.61255533838237   -1.04764712230574    1.98803083023666
N           2.37641622306840   -0.62083634512231    0.62532869206177
H           2.35158161878422    0.43122579576187    0.48483613765850
H           3.20170981537114   -0.91820454806266    1.13311070561423
H           1.47747790480364   -0.92418375117908    1.11104952988337
H           2.32177389794816   -1.05324727218769   -0.33968651620183
