    26
        -50.46704440  Gyration_radius:  2.46177754746 Dipole_moment: 3.989
 S           0.00689434524950   -0.65498509656233   -1.76355165634195
O          -0.03469887628139   -1.49957799499321   -0.56852995261918
O          -1.03346383792313    0.36648660212511   -1.69072075938138
O           1.31718732763832   -0.13683816368318   -2.03807500075775
O          -0.40023910947174   -1.58379918300254   -2.97776581455389
H          -1.35076649976348   -1.58885492234312   -2.93116876229628
O           2.55828329937615   -0.52413047025782    0.29629994349216
H           2.16447644603732   -1.36023489904709    0.55476600694826
H           2.24596025817173   -0.36924844136629   -0.61630173789468
O           1.38596231228606    1.54672790013187    1.53808119421977
H           2.01840995936091    0.86569135989770    1.22350693520602
H           1.15355060180133    2.05364844333704    0.73324959617776
O           0.59754478993732    2.35522321269449   -0.92666881615161
H          -0.02829061467848    1.68599927364721   -1.25967117132286
H           1.38788525032675    2.22131536801864   -1.45641636300839
O          -0.62062761117164   -2.73907984723113    1.86161373130722
H          -0.56239166060273   -3.69115280397387    1.94847835037448
H          -0.40333001186020   -2.53083443715872    0.94153043032764
O          -2.48267736442162    1.62148719582533    0.19802583647622
H          -2.15639927855386    2.52300353144548    0.14038998864598
H          -2.14037284828071    1.17195256553013   -0.59777516871732
N          -0.74044366716891    0.05315911927550    1.50561424930647
H          -0.94628713357435   -0.57852067082601    2.27703736190799
H          -0.49662276980639   -0.53773395380283    0.67674313221370
H          -1.55350441165601    0.64989517416911    1.23617263841729
H           0.11396110483224    0.68040115809537    1.69513581805629
