    26
        -50.47361573  Gyration_radius:  2.43353213226 Dipole_moment: 3.315
 S           1.02921194132561    0.21669903867714   -1.09855944368052
O           0.41476604476610   -1.11336926634924   -0.95487685770264
O           0.05121896960032    1.17444353101152   -1.57920501609818
O           1.66294568852633    0.63200948487249    0.13792639373423
O           2.16725706771505    0.09272896882796   -2.15969480619546
H           1.70197627957425   -0.20730346091794   -2.96275801317917
O          -0.22430985675018    2.23488302192047    1.14964307593077
H          -0.56696986813073    2.69151669962676    0.37715042377462
H           0.53527247670131    1.72267012572427    0.81229783075848
O          -2.27785631917234    0.05359733072669   -0.96196946310320
H          -1.48073117107083    0.56534164144538   -1.21485705773118
H          -2.10046172312076   -0.84909229118491   -1.23455008736333
O           1.98041482015721   -0.25503369881623    2.61691316512213
H           1.79217881242161    0.52298914456694    3.14722479857839
H           2.10861277224895    0.07527900508524    1.70463709006166
O          -2.00852788037325    0.30723299661807    1.69255578804373
H          -2.34917463468031    0.24080189294956    0.77440964311872
H          -1.44254749791994    1.11060458763607    1.67801451256226
O           0.10552760600156   -0.74304673021220   -3.60573243348643
H           0.02458019808674   -1.19204796808394   -2.74972101132192
H          -0.35608319822882    0.09659922445294   -3.50467840095933
N          -0.15627829350454   -1.50544667156953    1.60113575190221
H           0.66718446788055   -1.14352298991557    2.14352668313012
H           0.10286340482861   -1.46081430973588    0.58043715976086
H          -0.39671018041084   -2.45139630217079    1.87578900130701
H          -0.98435991647693   -0.81632300518569    1.73494125303502
