    26
        -50.46776025  Gyration_radius:  2.41219882991 Dipole_moment: 3.318
 S           1.02898747618122    0.16251392566905    1.02311246950476
O           1.14568687207152   -0.33908621919642   -0.35724919776813
O          -0.03432589593257    1.17402688845152    1.07922519116461
O           0.79455034568588   -0.91923645270867    1.94809548008157
O           2.36157449849118    0.84483081680568    1.38483230888692
H           2.55565244996275    1.42599505860499    0.59928178315465
O           2.68999480933970    2.44107980053171   -0.63194173851442
H           2.91868966965102    3.31669374842352   -0.31221275736333
H           1.76889418143973    2.50999309942512   -0.98326006294687
O          -1.34981320243484   -2.36427803354340    1.49679993004632
H          -0.55165363317112   -1.93553121490731    1.88428725285902
H          -1.95635932542083   -1.61858716521712    1.33374693809676
O          -1.16251645596843   -0.17475654447983   -1.75793548740912
H          -1.80058321787368   -0.01338982656629   -1.04668217669515
H          -0.28450694880950   -0.04436665109031   -1.34992245849452
O           0.09814233336855    2.55231161399596   -1.16830131600469
H          -0.30662070275613    1.97032318916338   -1.81921611491426
H          -0.04260268950323    2.12579856412032   -0.29459473927420
O          -2.35321513906642    0.06490194251869    0.76726714808306
H          -3.02717733237961    0.60379371000607    1.18438906908254
H          -1.48731714456948    0.50856363888980    0.96599065159499
N          -0.19864498730354   -2.50435783687986   -0.81151854788905
H          -0.80250585903586   -2.00093004895947   -1.48625095559693
H           0.17206753338428   -3.37219705037891   -1.18095548404146
H           0.56025058836051   -1.78995877635239   -0.59134191299290
H          -0.73664822363084   -2.62415015633184    0.12435471745564
