    26
        -50.46881766  Gyration_radius:  2.42393480181 Dipole_moment: 4.449
 S          -0.13969162083693   -0.83488680299017   -1.71497389877199
O          -0.33384667085926   -2.25092376714270   -1.48900646299445
O          -1.08466514950165   -0.00037788962558   -1.00832878454852
O           1.24751097758563   -0.43555627068317   -1.47692041374417
O          -0.40404918601136   -0.58020981441516   -3.25865172383017
H           0.05463913775501   -1.30177709776319   -3.67636714221526
O           1.99841782636550   -0.32350617767140    0.99212378891019
H           1.71760607936022   -0.37367279510155    0.03968687931463
H           2.84892029940295   -0.76326502583092    1.03399295951454
O           1.09759665846735    2.43503591638473    0.80974868829436
H           1.01404571796757    2.52433746050811   -0.16222161467295
H           1.61595816616459    1.63286081634110    0.95112433210007
O           0.60091637543078    2.11898361036599   -1.84022071832491
H           0.96844462707680    1.21774898170403   -1.81946608984022
H          -0.34706071325562    1.98969360728625   -1.92794633689478
O          -1.81359789165589   -2.26610933954672    0.65022378948259
H          -2.51515180503817   -1.68311163183208    0.34774941176986
H          -1.24385903411464   -2.39281998816207   -0.14716474781724
O          -1.33109500697878    1.49887612508595    1.22512684275873
H          -0.49738243670578    2.03161221014173    1.15590343219666
H          -1.42679039471718    1.08769352847421    0.34668549166655
N          -0.39626210706887   -0.68277935503909    2.22785785556800
H          -0.83911057399858    0.27524406896553    1.94762408094953
H          -0.93559754436752   -1.41381392571518    1.67957776475474
H           0.58466903483874   -0.65754860330035    1.88774968195986
H          -0.44056477530405   -0.85172783043384    3.22609291441714
