    26
        -50.46698718  Gyration_radius:  2.50143753022 Dipole_moment: 1.341
 S          -0.41194392333964   -0.54394179237399   -1.83719609408487
O          -1.28351545983785   -1.62740553287118   -1.44531851991560
O          -1.04028878833214    0.75975910660817   -1.69198120701182
O           0.88156373050583   -0.58717539001029   -1.16642095778940
O          -0.10013670283439   -0.74140486121352   -3.37841175282434
H          -0.94230878857897   -1.01136455881469   -3.73064794694110
O           2.86376349037453    0.88211644034019   -0.10990427256868
H           2.18304081686090    0.34577334727982   -0.56204960706573
H           3.70881932671212    0.54033344565430   -0.40379335878290
O           1.50591778412426    1.13254754353472    2.29283844811852
H           2.22991344355320    0.98880994105788    1.66038740599704
H           0.97904805440281    1.82797182550190    1.86918421749674
O           0.31906057079962    2.34565566109124    0.06955855692407
H          -0.15241923965235    1.86043053895348   -0.63119861901776
H           1.23977803098065    2.35498541059490   -0.20920216416410
O          -1.22741359823096   -3.05816941003865    0.83096387192321
H          -2.10827753554679   -3.40960163783361    0.96806885714406
H          -1.23938149292988   -2.65132721717268   -0.06021907011942
O          -2.28006393157758    0.94973201197209    0.64717389585728
H          -2.03445475922833    1.85370363435897    0.86604088050364
H          -2.05564485407300    0.84931374259033   -0.30091856662541
N          -0.20415493346430   -0.62469793879391    1.29461226476630
H          -1.07693449692836   -0.04791754422453    1.17590869686814
H          -0.46866226769571   -1.58946546900905    1.55155981822862
H           0.25785246907236   -0.67521736918063    0.36073918460091
H           0.45684305486234   -0.12344393800250    1.94022601848150
