    26
        -50.47547316  Gyration_radius:  2.3790548679 Dipole_moment: 2.854
 S          -0.68295319527154   -0.76937193639246   -1.06541879681962
O          -0.74740793598380    0.68193723979251   -1.16487645255517
O           0.60000594590965   -1.19585651464892   -0.48864233734102
O          -1.80443105474459   -1.32098690098996   -0.34343714055778
O          -0.72869585676634   -1.33841456167862   -2.52476915769921
H           0.05981130806110   -0.95891686331493   -2.94032488375454
O           1.83359230337092   -0.41627320598223   -2.65191143423095
H           2.52947148425967   -1.01217895469231   -2.93676479396144
H           1.55455748103430   -0.71500937121522   -1.75926796641336
O           1.66622565924434    0.71712452175943    1.04965078743303
H           1.73576419297315    1.42297258701217    0.36826751024249
H           1.39340361199282   -0.06801369328636    0.53439226747216
O           1.50778724825680    2.12946548054932   -1.21327153419341
H           1.98718876789191    1.63811673707057   -1.88839501452998
H           0.59762845087128    1.78162714833593   -1.26367159173642
O          -0.67436670485801   -2.00605055174483    1.93345859741976
H           0.18826763140042   -2.25501474132357    1.58834938799995
H          -1.22156906846557   -1.87948744979940    1.12606506578878
O          -2.44790533425357    1.17232150020682    0.76701981591317
H          -1.87062989903891    1.19106488901267   -0.02766859487425
H          -2.93077786006178    0.34441590761640    0.66806560998884
N          -0.51269839724383    0.59062920630615    2.47880819815551
H          -0.52638505699842    0.96745120054326    3.41969215648732
H          -0.59553326799186   -0.46288170819764    2.46929964822490
H          -1.31812107364161    0.95528074711242    1.89301360566021
H           0.40777063005159    0.80604931794574    1.97233704788132
