    26
        -50.46939083  Gyration_radius:  2.42806388145 Dipole_moment: 2.401
 S          -0.54178146381671   -0.89365414634889   -1.66091017817334
O          -1.08476286518517   -1.49222769850047   -0.45008697675060
O          -0.50604176937641    0.56040959387957   -1.55951948022901
O           0.72424623727967   -1.46986390559436   -2.04682044062747
O          -1.56090547405121   -1.21079942059843   -2.82877137966121
H          -1.31141118936398   -2.10109335991052   -3.05095172180030
O           2.61671115460979   -1.04527099524649   -0.22419520127608
H           2.04875427188504   -1.35179364807771   -0.96204825650359
H           2.69219191123471   -0.08907860549517   -0.36805998139000
O           0.54703385338395    1.67648160426192    1.70663627729141
H           1.11061348747914    1.83728851506087    0.93170805387641
H          -0.36409702215724    1.84827812210065    1.41049498200708
O           1.79588411169688    1.55521855126742   -0.76384874110611
H           0.95826732868122    1.18333456868737   -1.12674253726703
H           2.11453708194473    2.18284718254419   -1.41399099998129
O          -2.23094221375461   -0.68933243812915    1.98734195766865
H          -2.16851693409344   -1.19738396959467    1.17061907063995
H          -2.26883600999489    0.23063190466009    1.69836053438840
O          -1.86128851854177    1.67464319914246    0.41265876246756
H          -1.42790132957077    1.22358476011825   -0.34691472942274
H          -2.47394618816644    2.30879771449310    0.03837343681993
N           0.64308904921695   -0.96316356038321    1.51367428130163
H          -0.12256781033709   -1.20958313678840    0.84013641092773
H           1.55399386239992   -1.11481435482472    0.99281511359749
H           0.56352687699666    0.07154895356763    1.74623904041746
H           0.55414955160155   -1.52500543029230    2.35380269278594
