    26
        -50.46273796  Gyration_radius:  2.71643937617 Dipole_moment: 2.178
 S           0.69868834227298   -1.58141061084507   -1.70986433874393
O           0.38305479899508   -2.98503466046900   -1.59645679325751
O          -0.45643911879411   -0.71851771387462   -1.81780374609677
O           1.62230452393794   -1.12404743449037   -0.66528912302818
O           1.50655124241603   -1.40980520103530   -3.08051048359882
H           1.91712425527118   -2.26027210348812   -3.20696467456455
O           1.83593746737272    1.39661565774235   -1.47076704360435
H           1.88438999322903    0.47468074712732   -1.14373478028379
H           1.85686444826396    1.32664672011921   -2.42696449904199
O          -0.10445342136666    0.90109955326039    3.48272392751469
H           0.69073466367854    1.26915924089597    3.87039646349752
H          -0.55613771841973    1.64000004698432    3.02710929450461
O          -0.68707192517227    1.62075805653391   -0.60156307691303
H          -0.88132421194506    0.88045376706790   -1.20951938211283
H           0.24306064410456    1.83216984510943   -0.83368768489973
O          -1.57068203981362   -2.49057124370406    0.13434174175439
H          -2.21373433850721   -2.12683977270844   -0.47938470281827
H          -0.85759152987065   -2.84281446136668   -0.43995912479922
O          -1.24953651611301    2.76069133817703    1.86082926256439
H          -1.07325764912357    2.50491830949327    0.93953125983973
H          -2.16216217726472    3.05045546573092    1.89272240742932
N          -0.16661048969793   -0.42695764536387    1.12799862963302
H          -0.05927298129103   -0.16194519701285    2.12718834417924
H          -0.83253658002389   -1.21822814149702    0.96786515734752
H          -0.48976027359319    0.40906668116015    0.58889553390549
H           0.72186060146416   -0.72027123354976    0.66286743160852
