    26
        -50.46392496  Gyration_radius:  2.6106871062 Dipole_moment: 2.906
 S          -2.31121317714149    0.09775609991611    0.49887826640865
O          -2.24936244663912   -0.77518275576816    1.65769191501619
O          -1.64903392305534    1.37189037290498    0.74950022427129
O          -1.84296473059236   -0.53915690270240   -0.71576525974375
O          -3.83941912853138    0.43271458148227    0.25626621687566
H          -4.07726369273317    0.87055265865153    1.06696026179805
O          -0.57401032554034    0.80494758827539   -2.61330968251659
H          -0.92463857303498    0.46113718640526   -3.43647496365837
H          -1.11558883818240    0.39843713009177   -1.90229835492649
O           0.17430117488661   -1.51944674123498    2.15586373658918
H          -0.77906241402886   -1.28442116990523    1.99301029347902
H           0.19593864194507   -1.96021368489150    3.00645738332799
O           3.34985831455156    1.68321378017832   -0.03363965663336
H           3.04751293465308    1.05551967310624   -0.70553074934789
H           4.05999345918051    2.18720896317348   -0.43168583672666
O           1.66956651862936   -0.12316176787240   -1.50112405107419
H           0.97375055602246    0.28439437421042   -2.06196961125056
H           1.34063729209003   -1.03363868462444   -1.32006645819008
O           0.29347330377544   -2.21116773980091   -0.59322796294104
H           0.40591814960795   -2.25821009114164    0.36516337294536
H          -0.56291403064627   -1.76480294567498   -0.72253625700305
N           0.88730274181692    0.77813710781373    0.87599241501964
H           0.86371530899490   -0.03444228225125    1.51503627321161
H          -0.09706705481207    1.16298355299708    0.81859514971983
H           1.57291873939028    1.47406256745159    1.16705759966451
H           1.18765117939751    0.44088912920795   -0.08884424431370
