    26
        -50.47441751  Gyration_radius:  2.5079210871 Dipole_moment: 3.659
 S          -0.39021887470395   -0.08027120992057   -1.03883792573302
O          -0.74236620849805   -1.24569690628263   -0.20817726243085
O          -0.81247951007596    1.15295655495585   -0.39036034175666
O           1.03658552717193   -0.08572559751056   -1.32114517892323
O          -1.13739233985961   -0.21735625897523   -2.38157357369632
H          -2.04679261609259    0.16042412926346   -2.18016782941363
O          -3.27032340365491    0.80764471072509   -1.41444468641544
H          -3.56631601512454    0.06598258680173   -0.84565820129279
H          -2.65026003924493    1.31609538504029   -0.86943825429697
O           3.05799045481560   -1.10360878286911    0.13656164901016
H           3.53454953768614   -0.26955503002814    0.20950892131659
H           2.41711943665933   -0.95408771780002   -0.58540809438303
O          -3.36976464972085   -1.42713391596437    0.07599111288136
H          -2.38898942436172   -1.41260024431814    0.04179565920049
H          -3.64026830191257   -2.23838340031940   -0.35739613476954
O           0.67200613009928    1.57427041347492    1.75974393617419
H           1.47633985597984    1.84057363573664    1.27463646116164
H          -0.01786633786932    1.55319672571286    1.06084789209337
O           2.54078926289899    1.78356148221562   -0.19600667466484
H           1.96500661545066    1.15705021885972   -0.69026285648148
H           2.56223295137021    2.58792526391102   -0.71603808075006
N           0.95849194910694   -1.01544333729960    1.76177138400817
H           0.85739449714937    0.03814506892226    1.94914728094115
H           0.84752007845280   -1.57596744611217    2.59930744250411
H           0.21891969288180   -1.23915628871089    1.03691450229433
H           1.88809172144948   -1.17284006948934    1.28868885339692
