    26
        -50.46900039  Gyration_radius:  2.44978812498 Dipole_moment: 3.114
 S          -0.09202139646035   -0.94890319240942   -1.63799175669237
O          -0.03992917513087   -1.81465977323054   -0.46652095467652
O          -1.29646690929981   -0.14430419051199   -1.67239206470524
O           1.12369650981680   -0.16759248163424   -1.77637557132527
O          -0.19046172262952   -1.88828576753648   -2.90707738440229
H          -1.10643478124102   -1.74412131366739   -3.11438378700389
O           2.95279408591583    0.60182044021971    0.11081998565869
H           2.68241304385407    1.52345359505812    0.04319142256499
H           2.54250400097955    0.16849466295025   -0.65638330545744
O           1.29771426560419   -0.83432762789657    1.64926702055299
H           2.02163854387380   -0.29931853824440    1.25707185787416
H           0.93255240271082   -1.34047050863828    0.89665990156762
O           1.00631098378046    2.39489573433999   -1.15157109460333
H           0.96480768541825    2.92392827155832   -1.94938859164745
H           1.02519601683733    1.45530190853598   -1.44798332325278
O          -2.09708645345871   -1.94013128632179    1.15577331296327
H          -1.96925962460575   -2.78113966293108    1.59883169167518
H          -1.41151072710673   -1.90841539719032    0.44678153641261
O          -1.35620374041507    1.86277937966550    0.04860567162744
H          -0.51794194494741    2.26772990245865   -0.24686759513397
H          -1.51395747118245    1.15228226958338   -0.61132731153588
N          -0.99886607359837    0.30936866348829    2.11820938155168
H          -1.15994426178090    1.03017121269600    1.34080610386143
H          -1.60246886787517   -0.51634032358747    1.89488556254651
H           0.00681193404574   -0.05260630343248    2.04308901972618
H          -1.20388631311100    0.69039033667368    3.03427026185891
