    26
        -50.46561856  Gyration_radius:  2.50562885338 Dipole_moment: 4.315
 S          -0.52695041033204   -1.20720718142327   -0.97454866111863
O          -1.32330200534796    0.01477281452187   -0.77863860739043
O          -1.13184870179989   -2.36559900642718   -0.36540768055191
O          -0.11181187898537   -1.36627878734090   -2.34524623756331
O           0.83009517741873   -0.91516095669098   -0.18043206202804
H           0.60512630387504   -0.94250582626861    0.77427654883635
O          -0.98124990244486    1.40289322943121    1.50265103336069
H          -1.29356193154636    0.91964042932572    0.71242364742393
H          -0.62903870035254    0.72604751988472    2.09214371286679
O          -2.09014927714959   -2.19315222995578    2.03024535751782
H          -2.33299502192927   -3.08395598141054    2.28816006651817
H          -1.86622578085993   -2.24402176047181    1.06646933224421
O           0.20123663733309   -0.99736144481422    2.41650585075439
H          -0.68833830399394   -1.44098821206440    2.38741584577808
H           0.77576303674334   -1.57068043771246    2.92675724523042
O           0.96853354459804    2.86274420007492    0.52101319431177
H           0.19301743815304    2.43681025197402    0.97548400667816
H           1.75034921543673    2.54075975618395    0.97210544632790
O           2.10848978590882   -0.07085325730452   -2.58921365736802
H           1.33002022592968   -0.67936769940358   -2.65900303262975
H           2.59165698131182   -0.38945815214430   -1.82303601638151
N           0.32635266091201    1.73352962341342   -1.80691173712701
H           1.11760025209109    1.13710713736987   -2.17991807363526
H           0.64831054941237    2.28611870105356   -0.96879384551385
H          -0.04011075326109    2.34472929572816   -2.52894915517582
H          -0.43096913114889    1.06143797450742   -1.46555253137552
