    26
        -50.47297970  Gyration_radius:  2.50354022721 Dipole_moment: 2.740
 S          -0.50267135119729    0.81750453385711   -0.53774871355245
O          -0.56434899060955   -0.34100378972217   -1.43672973298423
O          -1.07831471139020    0.48832292521261    0.76563779519262
O           0.86376633123119    1.29998159394783   -0.40804671104107
O          -1.31612330671200    1.97257718391808   -1.15633976160132
H          -2.27481013108606    1.69660637995317   -1.19920993464588
O          -3.78471971924267    1.17534735690226   -1.08880503932830
H          -4.22012721858068    1.58408106916880   -0.33768785202303
H          -3.63471576109461    0.22674066296470   -0.84397183731574
O           0.65586402742218   -1.13734505342305    1.94495411775617
H          -0.10450708971978   -0.58922078464648    1.65279353135128
H           1.34278764677831   -0.48031591938722    2.16658084341733
O           2.23373521465014    1.06627213976260    1.84008747594944
H           2.07414656640211    1.79496890214179    2.44110731894564
H           1.69064981618070    1.25001060653894    1.03950467453455
O          -2.86233016383364   -1.15921309693309   -0.29095909133660
H          -2.23144765440401   -1.26478396336703   -1.01700156974158
H          -2.33993225722646   -0.67754940052458    0.37770046221705
O           3.23066936911393    0.07925954442931   -0.76804718803944
H           3.57154061786443    0.30453916351174    0.10442925503990
H           2.47434243249942    0.68358254417795   -0.89633667931966
N           1.36817175207694   -1.79571124164217   -0.48100310905089
H           0.57991746129194   -1.29871436668359   -0.99387651025327
H           2.24027621286585   -1.22949680508357   -0.65624116148585
H           1.12284138975949   -1.70656104634059    0.55870706496796
H           1.46533951695980   -2.75987912873543   -0.77949766765342
