    26
        -50.47037303  Gyration_radius:  2.43417737971 Dipole_moment: 2.962
 S           0.80548241797544   -1.59554873723184   -0.52381567164266
O           1.11214787373827   -0.56871060022884   -1.51815775491936
O           1.51426941896138   -1.33596406344951    0.72703083662028
O          -0.60372890000478   -1.79836915894260   -0.32877650165142
O           1.39510499545018   -2.94570769218179   -1.09727651981087
H           2.31809032900862   -2.74420447761274   -1.21119035000953
O           2.68113785019154    1.05332782763197   -0.08394953939793
H           2.86220132762969    0.42961457467325    0.62550054630733
H           2.19806549142357    0.52121236421746   -0.74552427438799
O           0.44991372658309    2.38606785160934    0.60421709170603
H           1.37181580051568    2.11807589729036    0.39534209127429
H          -0.02790388892767    2.28412890791348   -0.23848305735518
O          -0.49295802888210    1.50366238945013   -1.80094992502872
H           0.08158040181602    0.70432635829865   -1.74597028381143
H          -0.30401123571549    1.91113884329168   -2.64769273500168
O          -2.58745321528215   -0.73794534293704    1.46929948945100
H          -2.33146081764036   -1.64489862220994    1.27227444639917
H          -2.81110795107906   -0.36765179626292    0.58187813226843
O          -2.61869505815313   -0.15102070343298   -1.11560202931007
H          -1.96784880525188   -0.87245863205280   -1.07647982213877
H          -2.10722593909662    0.62399590783705   -1.38885622891559
N          -0.18964734498204    0.24697443629089    1.98788996430016
H          -0.01680754738747    1.18094772488784    1.49278602764955
H          -1.18383960787946   -0.09644635915813    1.80832086362563
H           0.48198743128819   -0.44840430096616    1.57279792118976
H          -0.02910870429869    0.34385741327712    2.98538728258910
