    26
        -50.46514027  Gyration_radius:  2.4851895011 Dipole_moment: 1.921
 S           1.59387587802910    1.04174058311478    0.56484671508471
O           1.36700803656352    2.37261411994669    0.01637254862264
O           0.55869050361476    0.67689647586263    1.51132645068081
O           1.79751643703034    0.03225729357188   -0.45847682530624
O           2.96158371538525    1.11762011187154    1.36185207341842
H           2.83580451791719    1.89049113502531    1.90220424331740
O          -0.32130844934894   -0.18957772208719   -2.08780971056988
H           0.54837869242028   -0.13547910229095   -1.64381353678608
H          -0.68305157895487   -1.05066686456125   -1.82523255805925
O          -2.07761601212691    1.50012998341077    1.46132716013681
H          -1.18552508396821    1.49955292512141    1.84284837531764
H          -2.28081535120432    0.54297297643474    1.41647888300276
O           1.63221335600873   -2.54044459318322    0.05301656794366
H           2.38516275778530   -2.91551604259485   -0.40692505154239
H           1.73070829463040   -1.56490649760449   -0.02866705257137
O          -0.83686822512182   -2.65257835054141   -0.93499545586741
H          -1.15976767512137   -3.55223888334213   -0.99505923400639
H           0.07647205949215   -2.70063263113213   -0.56251734133206
O          -1.58548335035198   -1.10544567412111    1.25971340190142
H          -0.71440328850045   -0.72945513524146    1.45972439984981
H          -1.45654879920106   -1.66666560527428    0.48002523223857
N          -1.06026727185212    2.04192511368821   -0.89507345304326
H          -1.48109446226466    2.76993626943186   -1.46219880184404
H          -0.94269437345129    1.14374058759081   -1.44498714423142
H          -0.08453447215023    2.31315727885696   -0.58352601486684
H          -1.61743586525058    1.86057225803301   -0.00045387148259
