    26
        -50.46669665  Gyration_radius:  2.45660259118 Dipole_moment: 3.260
 S          -0.16131082424213   -1.52209217665437    0.89127356106455
O           0.69721970425030   -0.45701855316419    1.36570700177825
O          -1.19906857962722   -1.90024293740786    1.82175707726732
O          -0.68615174722287   -1.22799669324544   -0.44036844933936
O           0.75881901104576   -2.81756186510033    0.73182909168768
H           0.18652975711108   -3.51975795573434    1.02609460426802
O           0.69654327507644    2.16978353012422    0.57204678810079
H           1.21915975540701    2.10721479797637   -0.27279073608795
H           0.91686823949629    1.35955366297593    1.05996965427725
O          -0.16127414052208    0.09213798162443   -2.74711588052425
H           0.21041882208177   -0.47410627017160   -3.42516104157284
H          -0.28831828810872   -0.47477672891859   -1.96468988530758
O           1.88662988039838    1.58256197190378   -1.69752543391060
H           1.12925502584519    1.22551273173354   -2.19736816849997
H           2.36907165666000    0.79549407173003   -1.40615171007538
O           2.38541550255860   -0.93087428201372   -0.65724543402583
H           1.82828919991582   -0.74984518354503    0.11885227082598
H           2.56946553801688   -1.87057105780675   -0.62629827493042
O          -2.39735096211086    0.37831086632156    2.40263394643020
H          -1.87561474387763    0.72817113852809    3.12797043972601
H          -2.05826331476170   -0.53305267419019    2.24953947185613
N          -1.63392640429132    1.22747678422657   -0.00624776043761
H          -2.22239182194887    1.69626412389747   -0.68632363780417
H          -1.35749366943537    0.27499476062315   -0.33655129181027
H          -0.70170131763595    1.76298842494207    0.18111059307727
H          -2.11081954407431    1.07743153134191    0.91505321396819
