    26
        -50.47074741  Gyration_radius:  2.49934213703 Dipole_moment: 1.698
 S          -0.59383387095652    0.27613790778148   -1.86340382914441
O          -0.87675554664205    1.49035705432407   -1.09989961884998
O           0.80432000471078   -0.10376242827127   -1.75190618749565
O          -1.50845636425868   -0.79929861416186   -1.56115954386288
O          -0.83597955186344    0.64579370421733   -3.38329777410947
H          -0.20392002551545    1.34052863730879   -3.53714213228931
O           1.31334581553528   -1.75548230225108    0.25556806792979
H           0.63493817243435   -2.44023657137939    0.08219028845123
H           1.25856644500821   -1.16302574524885   -0.52477385493716
O           1.45599019738064    2.02765420162738    2.18355438923606
H           1.62882603419655    2.11769503181788    1.21027608830668
H           0.95920571689805    2.80931409249013    2.43061183954786
O           1.58367610827115    2.16649907222836   -0.44466345007324
H           0.62970935568724    2.09253164522997   -0.65476564181790
H           1.95720998098968    1.37380375765387   -0.84728935853679
O          -0.88220229217085   -3.12075426294707   -0.45476132083118
H          -1.17784713125634   -2.29348286448922   -0.89329560859825
H          -0.89064813519632   -3.79581348319082   -1.13483915198509
O          -2.08545331102110    0.28345667048386    0.88993557472722
H          -1.73263065222686    0.90327291019136    0.21538974046009
H          -2.39162067308045   -0.46094053670973    0.35933916422810
N           0.18860116080606   -0.32378457069004    2.12808097500016
H          -0.76627015017396   -0.11269375946441    1.72347859550555
H           0.10722377238166   -0.80889117831624    3.01468313410529
H           0.71541540923993   -0.93291173228374    1.41265203127572
H           0.70858955081512    0.58403334405791    2.24543759375687
