    26
        -50.45757811  Gyration_radius:  2.55689433724 Dipole_moment: 3.350
 S          -0.55701163160932   -0.19390239339308    0.03618011743121
O          -1.41918003300652   -0.81858886013534    1.01004183695619
O           0.58779841044001   -1.14135619012256   -0.25714876242541
O          -1.20693620105960    0.19959534386301   -1.18757413913890
O           0.07446063326932    1.06385978032414    0.63897280225826
O           0.56248506504257   -2.06226438667475    2.36887847295281
H           1.14809790382551   -2.28428015372967    1.64009133478621
H          -0.28824478390885   -1.84119714621415    1.95269855736142
O          -0.59547856267006   -1.06268370050498   -3.47921904628283
H          -0.97117485075845   -0.56298509455292   -2.72795729430141
H          -1.01489801880096   -1.92439606592439   -3.46954190576245
O          -1.96958111094322    0.55332908765428    3.28439158065845
H          -1.93716039452532   -0.02473123724283    2.50056524645000
H          -2.60522420617243    1.24333720588739    3.09006403683448
O           1.71245372470136   -0.46058827332554   -2.31797215114615
H           1.16207751225877   -0.84848394265966   -1.18752947755503
H           1.03746640556096   -0.77419631644653   -2.96348476744301
H           1.57131618707262    0.53956949781709   -2.27028526977087
O           0.70473035424580    0.52112832565185    2.98861118040955
H          -0.17569685735259    0.64931528778071    3.39559925937748
H           0.82186041329549   -0.45715878084076    2.94638927027471
H           0.39609778293377    0.87320781724380    1.62567144691196
N           0.90236543158782    2.00187119075731   -1.98794880367377
H          -0.02229689581938    1.65968352919133   -1.73573966786805
H           0.80160977120449    2.68929773790282   -2.72401351455972
H           1.28006396117576    2.46261773769403   -1.16974035271650
