    26
        -50.47192564  Gyration_radius:  2.4356770835 Dipole_moment: 1.712
 S          -0.17049390486694   -1.80417418546340   -0.93895677123594
O           0.89632090273343   -1.27195123752237   -1.76663159064934
O           0.28152440137088   -2.03549642656585    0.43692033254982
O          -1.39229547413597   -1.03869523213900   -0.98591247038692
O          -0.51180451757128   -3.23278663249004   -1.53014413018282
H           0.35186665738389   -3.60295739887276   -1.68028566214805
O           2.51976726007132   -0.55163177808720    0.31628208693307
H           2.51265759404078   -0.45934120690064   -0.64229774837128
H           1.82373474999515   -1.21242511994037    0.48254099684952
O           1.37733214229181    1.45416180913336    1.66974731181687
H           1.97505629403022    0.82250162366048    1.21048841456695
H           0.90671474767998    1.93409376325237    0.96492847399488
O          -0.23465184995488    2.45615971557803   -0.33312475753106
H          -0.17896997314288    1.91621342118991   -1.16823105790673
H          -0.22267072442345    3.37380441152010   -0.60841851565390
O          -2.29463790037877    0.88792990609134    0.64175903656181
H          -2.17861399623799    0.17150184385895   -0.01260365755466
H          -1.71668257014917    1.60691780324511    0.32949071167567
O          -0.27561975235996    0.96602998158044   -2.49243299287855
H           0.29628162165274    0.18696292921066   -2.32836094930914
H          -1.16441042505456    0.59746906046368   -2.45381936350389
N          -0.52917430855717   -0.24466637757404    2.21369570531646
H          -1.37143055422079    0.21502952324227    1.75238418731195
H          -0.25693424823961   -1.05252320349457    1.59887026398213
H           0.27548352398956    0.46557984737328    2.16241139032757
H          -0.71834968599838   -0.54770683039170    3.16170076547478
