    26
        -50.46698706  Gyration_radius:  2.50085679974 Dipole_moment: 1.276
 S          -1.64208833522997    0.61876507798182    0.87109159886881
O          -0.71496526348904    0.39497151377406    1.96980566995400
O          -1.55520199698721    1.95807396670907    0.33755891394553
O          -1.51171671457147   -0.40840271124603   -0.15453594058291
O          -3.10333168271350    0.44642664566092    1.45947269368114
H          -3.22802801429084    1.24818504678346    1.95737932358088
O           1.68926357058687    1.34322945633686    1.36105754140567
H           2.21924214858446    0.62801219828042    1.72584996208011
H           0.79025518407040    1.20137847437540    1.72280206680257
O          -0.38665616333927    2.76100936122248   -1.94691709218903
H          -0.17833334935695    3.69134032033906   -1.85077546394328
H          -0.92079271122401    2.52556195878711   -1.16003011675256
O           1.06446083257662   -1.59384071245393    1.38289704707404
H           0.40346889762444   -0.94315136719629    1.68029044077582
H           0.55327581618787   -2.36009792682015    1.10525760174717
O           1.95728400228472   -1.84178977905756   -1.25866156620202
H           2.10495456671622   -1.81367577875389   -0.30068930280020
H           1.14105925925519   -2.36364796851021   -1.34054670113792
O          -0.56380914590731   -2.85420329645647   -0.72018606426720
H          -0.97853764578802   -1.99775898723996   -0.49621964901539
H          -1.22843458650168   -3.35404208739543   -1.19535575824069
N           0.83577105853170    0.54810590212435   -1.05663159959220
H           1.28128409637657    0.93540555490638   -0.18481408141360
H          -0.10163061380796    0.18160386524691   -0.78293441805605
H           0.67356488297573    1.31843079196411   -1.72504749764564
H           1.39964190743411   -0.26988950936424   -1.40011762807514
