    26
        -50.47300974  Gyration_radius:  2.48570164575 Dipole_moment: 3.126
 S          -1.06518490564242    0.67538748181493    1.58168715578883
O          -0.46722146019241    1.96577299090593    1.86580193568812
O          -1.83546185270570    0.69144937765720    0.34615747661762
O          -0.11499848050456   -0.42015124538228    1.63473685164628
O          -2.10054507053716    0.39354327683023    2.74835910028318
H          -2.62514780078657    1.18732791936273    2.76935217272294
O           2.26165439270059   -0.09256711301103    0.49656904801640
H           1.48565562286141   -0.30422796680048    1.05693292597118
H           2.24101435885061    0.87651508752412    0.41988716766564
O          -0.31442376916563   -2.95128241747282   -1.44121795806523
H           0.08809803924019   -3.71632794055231   -1.02713582922368
H          -0.99793878443851   -2.62798503323989   -0.79394709485473
O          -0.28732263253782    1.42413925957084   -1.66582978899373
H          -0.97729731223906    1.19265873833365   -1.00587349620949
H           0.33466322631558    1.99410370964687   -1.18312524330603
O           1.43105862369630    2.51427645198293    0.20006986235566
H           0.71913576591623    2.34317678609693    0.87217952336888
H           1.77277191870337    3.38791834190611    0.39706483286811
O          -1.87583989454351   -1.98423518854377    0.43435028356957
H          -2.26998947448256   -1.15107711910439    0.13766746535629
H          -1.18971700619284   -1.67422759461558    1.05253108149929
N           1.16870681232168   -0.75877954422375   -1.80056414294277
H           0.59808751906676   -1.63887127346907   -1.70461442041899
H           1.72299758856943   -0.59389778000254   -0.90375223752784
H           1.77938824092204   -0.81702266921191   -2.60768728251570
H           0.51785632480092    0.08438347399631   -1.87959938936025
