    26
        -50.47001967  Gyration_radius:  2.50914039883 Dipole_moment: 1.666
 S           1.14772250309568   -1.05636655234483   -1.04537160133936
O           0.04615948458543   -1.88574173070277   -0.56195741372818
O           0.65625305532964   -0.04633711336815   -1.97426923808913
O           1.94939942703241   -0.50573064729029    0.01801322241389
O           2.08389837548274   -2.02191291020677   -1.87479738428926
H           1.46784195950951   -2.48688359399389   -2.43225397613656
O           0.71500442713814    1.63375539386834    0.99275228786148
H           1.33882876118757    0.91304356889117    0.77489236688444
H           0.75123389115163    2.22724883419419    0.21940253941515
O           0.53642580359481   -1.93420879220079    2.08527990395465
H           1.31040178180533   -1.36480656690489    2.03885754094072
H           0.34499373793459   -2.15126825846031    1.15632752318830
O           0.87258587712280    2.56879836430594   -1.55117122691346
H           1.70179223802371    2.91607889931105   -1.88205494888119
H           0.86594460786584    1.61269191887642   -1.77528276013978
O          -1.86874668182357   -0.96420810529339    2.90353246749123
H          -1.02341607113252   -1.42878920162729    2.72305927008159
H          -1.77183970300364   -0.55652676444742    3.76496620639964
O          -1.79831395081997    1.20529489134972   -1.92490811613206
H          -1.02951440634746    0.64964694505676   -2.14183560046417
H          -1.46358442711623    2.10638886002385   -1.95802294300131
N          -1.39780273568535    0.11840090946298    0.49420891310825
H          -1.95012507154981    0.56736828023892   -0.25861967824212
H          -0.94549407159516   -0.72821385094581    0.08332402403372
H          -0.61983727122786    0.78424026541069    0.78358863140404
H          -1.91981155053448   -0.17196303316077    1.34233998019509
