    26
        -50.46572446  Gyration_radius:  2.50646224139 Dipole_moment: 4.797
 S           1.59204641440214    1.00985114653304   -0.19748077488318
O           1.18064951768592    1.11425379613107   -1.59246364980653
O           0.57645068634614    1.58996948201854    0.67485256642682
O           1.98444199203042   -0.32607540789718    0.17931247642047
O           2.87278933383528    1.91723327841932   -0.02908028950118
H           2.49255108762934    2.78598956143256   -0.09147609076621
O          -0.14795676258131   -1.98025279885274    0.10966010358465
H          -0.54421133432824   -1.52861150192181    0.88435460474801
H           0.70588519169167   -1.52827484460279   -0.00690225242042
O           1.87675366030490   -1.14071373917005    2.76780153523827
H           2.03210305237142   -0.79339103113763    1.86944265437512
H           2.17036175866740   -2.05307009882272    2.74855363387402
O          -0.66660836657707   -0.30625360305592    2.15365808461978
H          -0.19033854811179    0.42283515535686    1.71464684624306
H           0.01146839955219   -0.69192477129559    2.73115030523122
O          -2.09128444910603    1.60329430799287    0.39064178943209
H          -1.15652476178424    1.83242005516041    0.56126526486012
H          -2.29443376464922    0.92873691963642    1.04792506659049
O          -1.55481316338157   -1.92481004453448   -2.07806999445296
H          -1.04513190939624   -2.42465038625281   -2.71746379527415
H          -1.08308031801570   -2.04264040266999   -1.20712895770897
N          -1.35994482514035    0.71242361407213   -2.00155385630341
H          -1.81183416209296    1.03917149288003   -1.10378808506100
H          -1.72614553785603    1.22564870151092   -2.79589659632379
H          -0.31438484515756    0.88802425308191   -1.89367115319214
H          -1.50880835636514   -0.32918313402590   -2.11828941592967
