    26
        -50.46804513  Gyration_radius:  2.44150473664 Dipole_moment: 2.588
 S           0.82182957258111   -1.73539537776012   -0.27510931720886
O           1.54531828313215   -0.65620816044668   -0.93201560597297
O           1.39570796918383   -2.04285845297591    1.02510730653579
O          -0.60555788269920   -1.49562403516499   -0.23337273082157
O           1.02206901624436   -3.02750187803574   -1.16482146776368
H           1.92916735480806   -3.24271394876952   -0.97726327819098
O           2.10462163915803    1.61077191715551    0.39443568630231
H           2.13347378722072    0.79005988684238   -0.13621619576052
H           1.57833599085199    2.22084247348392   -0.13213987510712
O          -1.56353309171856    0.05593905879386    1.75691154058424
H          -1.78882921216879    0.83499176267314    1.18880413362947
H          -1.40661070601654   -0.66336176039511    1.11803720287626
O           0.10114406062249    1.43205364332583   -1.81762671637134
H          -0.60448787118654    1.08182527808530   -2.37479254158952
H           0.63390315741672    0.65017681313230   -1.57730117826898
O          -2.13880141427812   -0.24443746448104   -2.05660642623935
H          -1.59137100471251   -0.72268370197418   -1.40138357663783
H          -2.65146769481042   -0.91428375938612   -2.50991561493635
O          -1.94267792017242    1.89612581745682   -0.09997730372471
H          -1.11244993230383    1.88746625712688   -0.61906069414445
H          -2.56692665281718    1.42944098789769   -0.66647420683733
N           0.95389962282785    0.18671374991767    2.32817605541165
H           1.40751917086880    0.90547225514437    1.70903743417198
H           1.22018329695985   -0.75775846042637    1.93709993007476
H           1.24820111262546    0.28509502911272    3.29358139394109
H          -0.12266063158925    0.23585206967425    2.22288605605982
