    26
        -50.47168296  Gyration_radius:  2.41946585675 Dipole_moment: 4.627
 S          -0.72429735145662    0.06462919438303   -1.72714875956077
O          -1.04786641549496   -1.32578756912983   -1.45435917174654
O          -1.55927163834230    0.97280912904095   -0.95014907524695
O           0.68092487402002    0.37558184735801   -1.58618142857865
O          -1.08138558813199    0.30083717373673   -3.24800262959733
H          -1.89717145520052   -0.17966979492119   -3.33718416191209
O          -1.98146854721347   -1.06771154796799    1.01955865690230
H          -1.66437134529691   -1.22171172509872    0.10677656319445
H          -2.63225294749129   -0.36797505584503    0.93586758367163
O           1.83675058474355   -0.88786691325245    0.50935710948352
H           1.48394371429848   -0.47555263843602   -0.29994394800870
H           1.57235753193542   -1.82393280474970    0.42881263121812
O           2.31219049166837    2.07044573550781   -0.29503284461004
H           1.88316282149768    1.57862446158889   -1.01830950353345
H           2.83311737396851    1.41198063876082    0.17601470828800
O           0.12717216628402   -0.00924406255503    2.33444938051327
H          -0.66597207875636   -0.49986027798461    2.03416360368419
H           0.87268590527558   -0.39155711661492    1.80934036774257
O           0.38123506613287   -3.12592304005416    0.03285307976340
H          -0.26090174513405   -3.27958475963048    0.72987933443591
H          -0.09183280894940   -2.62128804987452   -0.65061193656759
N          -0.08291691397711    2.13362684666317    0.89878909080699
H          -0.44858785694412    2.98566901738822    1.30831946598281
H          -0.71016865157240    1.77880003416669    0.12876665972968
H           0.87708209361060    2.27843951068875    0.49312704502696
H          -0.01215730947680    1.32622176685621    1.62084817891547
