    26
        -50.47280416  Gyration_radius:  2.48471453986 Dipole_moment: 4.476
 S           1.49761257561522    0.13578632049422    0.17673534581366
O           1.13396159868187    0.63200738656130   -1.14401941820831
O           1.70794682287649    1.21484678321332    1.12619370809453
O           0.53149443719394   -0.84193082474068    0.66085815472078
O           2.84590028985125   -0.65266496461171    0.02159138577823
H           3.44245519496197    0.05033912379738   -0.30093178185434
O          -0.71376924601542    1.91980456854685    1.77309910864852
H           0.21327900525066    1.71962504528123    1.49247745966913
H          -0.73845811638716    1.71566097534380    2.71042267389286
O          -0.42132025548559   -2.42638413031325   -1.21824913862138
H           0.02250716014337   -1.87021621124329   -0.53661478427504
H           0.28256718978043   -2.84456071668432   -1.71548222838899
O          -1.27681227345392    0.04290413656052   -2.00139029799068
H          -1.16260139728690   -0.92497127239080   -1.96501152480474
H          -0.37510713750164    0.38542082621337   -1.80204947479720
O          -1.83891050859344   -1.90916673511234    1.32914481219641
H          -0.91747911292584   -1.59590345267650    1.37932900651514
H          -1.83007504147205   -2.55253268703462    0.61203646551662
O           3.56549899266219    1.75290747277396   -0.79059638756746
H           3.22569014757876    2.06615509634417    0.05783701395018
H           2.77471034234083    1.64575130960155   -1.33953865749720
N          -2.42339090701763    0.47942886957426    0.29818113682843
H          -2.37959728676939   -0.47301261257978    0.74701962978026
H          -3.36682448637515    0.84999142852599    0.27693782338661
H          -1.78266212814246    1.10848982130381    0.84820989620372
H          -2.01661584951160    0.37222442324878   -0.69618994699173
