    26
        -50.47131874  Gyration_radius:  2.4486739169 Dipole_moment: 2.828
 S          -0.00131705945664    1.77631947963361   -0.02389122054499
O           0.49574617587103    1.14265189889363   -1.23951552847665
O          -1.14859698406679    2.62152780397175   -0.24265118577097
O          -0.17975202575578    0.79974474737172    1.03544850435087
O           1.15668644706872    2.75548630150825    0.47176346650971
H           0.75052326017351    3.61158361974847    0.38480503212268
O           0.52412737235962   -1.47296094383404    2.34550812795564
H          -0.35052552777421   -1.86278869819369    2.41142081910911
H           0.38510279179794   -0.57434100314870    1.99988518871679
O          -2.04581397539190   -1.00853419959620    0.39040538288694
H          -1.46803079091707   -0.34447631496762    0.81475751650135
H          -2.61211395084320   -0.47255112384694   -0.19582500072413
O           2.74496881937601    0.38765530399127    0.00662447687633
H           2.78013806121093    0.95863782906836    0.77607662228130
H           2.01026215926173    0.72478143515258   -0.53425104453531
O          -2.91000405170045    0.91919801542216   -1.27135139443130
H          -3.74220064678308    1.38521796338469   -1.37092938698886
H          -2.26665175380165    1.58551658530802   -0.95061762912707
O           1.97617431925866   -2.19959895946960    0.20782213254188
H           2.49353176520060   -1.37453255168235    0.11793425766133
H           1.55787121516651   -2.12213348209877    1.09185182933332
N          -0.03689967080197   -1.46865221120741   -1.27084617239782
H           0.17344759959496   -0.45294368727972   -1.41629067959846
H           0.80038539788051   -1.88325447911875   -0.72373010136068
H          -0.90041682896936   -1.49260304764779   -0.65830337140579
H          -0.18664211796415   -1.93895028136885   -2.15610064148590
