    26
        -50.46936544  Gyration_radius:  2.42996945819 Dipole_moment: 1.240
 S          -0.69502940347165   -0.99364195828447    1.42644739427759
O           0.64874926295223   -0.66317533495337    1.89079880648004
O          -1.43704473026681    0.21936357036240    1.10650574428929
O          -0.70506324513339   -1.96512085841082    0.36189803388911
O          -1.43994430258450   -1.65821696924505    2.65040600752484
H          -1.42523182826667   -0.96400994438360    3.30088878343438
O           1.13537681954126    0.19202801669308   -2.02063370539319
H           0.30754570177214   -0.25147557343818   -2.27592943650665
H           1.60923143470188   -0.45079036476293   -1.44660336066499
O           2.10875882780177    1.57281582507922    1.70527552560269
H           2.97459126093332    1.26264076795982    1.43150283776248
H           1.60259366682170    0.76698543272800    1.93564073262910
O          -1.29142451614891   -1.05827496158792   -2.03633945662038
H          -1.13143875446449   -1.40222599699536   -1.12670147871416
H          -1.71606988213763   -1.76793189307249   -2.52040058981418
O           2.02119670973669   -1.56834777505284   -0.19989511524014
H           1.60639834009565   -1.25481442782464    0.62750575398258
H           1.54455693554840   -2.37551258568521   -0.40975202924313
O          -2.33835244704031    1.47981839299835   -1.27372886895183
H          -2.07991771580636    0.70532740668772   -1.79074614161813
H          -2.45460865437445    1.14257971406599   -0.37859156282098
N           0.23551045683922    1.83588653103898   -0.19260159977676
H           1.00753189415931    2.03876562115847    0.47680023195045
H          -0.23669718121456    2.66323626406148   -0.54728850230938
H           0.61871144329783    1.25109298398963   -1.00827986660985
H          -0.46993006334483    1.24299810682520    0.31382188245434
