    26
        -50.46891487  Gyration_radius:  2.43219872083 Dipole_moment: 1.430
 S          -0.99555190329239    0.50706377276294    1.46994428995032
O           0.18646697030116    1.32014430360219    1.68831237152235
O          -1.62006546558084    0.80434515281243    0.18747416452110
O          -0.75937558026401   -0.91197602294145    1.64611416494427
O          -2.04189897581303    0.91502170277362    2.58208298604461
H          -2.18617975258634    1.83964042128204    2.41026512743216
O           1.36394538153315    2.09568773811450   -0.52897370952794
H           1.89243430959435    2.86342352211666   -0.30643733903136
H           0.89057930860293    1.83621996935488    0.29702738830793
O           1.97316749554826   -0.50193604008408   -1.09477188437876
H           1.95129342773591    0.47059077638698   -1.05943874127378
H           2.08716638001010   -0.78625655600423   -0.15981122667744
O          -0.79186837458306    1.72411621041572   -2.36414471882434
H          -1.38615403656521    1.68065198414953   -1.60686476234429
H           0.05974222852168    1.97785202257667   -1.98558198986671
O          -1.12505655808325   -3.04831967948405    0.07047961620125
H          -1.13284942170187   -2.35063423853195    0.75619567069583
H          -0.44658350568540   -3.67070277994564    0.33942366405993
O           1.89578330822505   -0.93160920725961    1.54692979393033
H           0.93363687342109   -1.04819743900945    1.66538875744992
H           2.07434249290040   -0.06962267977870    1.93269460437612
N          -0.57337252659283   -0.95916217324415   -1.51947964372686
H          -1.03334994245211   -0.25928196059562   -0.88497004806307
H          -0.87260574829717   -0.77012121724081   -2.47286708926119
H           0.48795946697660   -0.81967133542190   -1.43411164431758
H          -0.83160583187828   -1.90726624678680   -1.17487978215104
