    26
        -50.47031939  Gyration_radius:  2.49282528908 Dipole_moment: 3.324
 S           0.21401285978618   -1.82023719974710   -0.91238942501096
O           1.49920414288659   -1.14394955489871   -1.06516793310287
O           0.10856941499262   -2.46021280861956    0.39264931623897
O          -0.91276956223889   -0.97529485198139   -1.22624767230131
O           0.20548042610350   -2.98895623098531   -1.98135022000618
H           0.92631245412557   -3.53810390241602   -1.69072863123781
O          -2.08549540376974    0.52507110275260    2.44837947041884
H          -2.85670993925679   -0.04346492454588    2.47353799076333
H          -2.07033178170443    0.91292627666663    1.52961976315012
O           1.86196922095008    0.79955954553829    0.72799033371531
H           1.90862059058494    0.09077856694151    0.05339390038329
H           1.40544175813766    1.53786503372180    0.28346096081572
O          -1.89288047397644    1.24947647043748   -0.04749115865510
H          -1.15966610967874    1.85229997989903   -0.25015592085647
H          -1.66718804254041    0.41419936428166   -0.49670956625860
O           0.44126193280495    2.50850069170881   -0.86445698573106
H           0.65705582471864    3.38317370452668   -1.18930600251140
H           0.50836862111871    1.89191408113687   -1.64386964154441
O           0.57187180210106    0.67600814453684   -2.75159025911450
H          -0.29568635003080    0.26116275243803   -2.65009063223652
H           1.15846235468419    0.04859876856029   -2.28826732880203
N           0.29389062040745   -0.63873849833602    2.25663183626437
H          -0.64790765988816   -0.18937463848935    2.42486978854262
H           0.94391278353934    0.05192896894438    1.76633955636650
H           0.70349148387696   -0.96186579991796    3.12625030096883
H           0.18070902229283   -1.44326503213294    1.57469814966140
