    26
        -50.47111521  Gyration_radius:  2.47066224273 Dipole_moment: 3.107
 S          -1.00815524567338    0.30653580319280    1.12828893250738
O          -1.08879420154058    1.13711754550567   -0.08547067983268
O          -0.99188186042430   -1.10431670408090    0.75551556339999
O           0.11063212091295    0.66488806631494    1.96278345716100
O          -2.30493952735842    0.57300268227374    1.95190667987883
H          -3.01964555862278    0.48597292479373    1.29187563415487
O           1.56917239491030   -1.66429840370290    1.21007669071429
H           1.72733782227565   -1.19664075235198    2.03395169440707
H           0.60918778784888   -1.55058539553306    1.05750956138945
O          -0.55235135724320   -2.32039679917508   -1.54807707642960
H          -0.90103774034595   -1.96216156732568   -0.70265787950703
H           0.06838784711512   -3.00750185189502   -1.29441750370927
O          -3.66342034359679    0.72198075368302   -0.31692210771678
H          -4.15270280477292    1.53822328399684   -0.44109045256092
H          -2.72106574705226    0.92950182574289   -0.48331847709698
O           2.74780932244210   -0.09236345424542   -0.62071444471852
H           2.70107634091874    0.75086633732443   -0.12325751968935
H           2.46435160584988   -0.77929192336486    0.02401384333006
O           2.06299413911841    2.04406185505704    0.83750187010310
H           1.28507739110644    1.60107484688462    1.24288614649256
H           2.51691779725900    2.48633942827541    1.55630096731184
N           0.50839477072885    0.09784608674698   -1.91774096599633
H           0.12171977024665   -0.87775035126480   -1.98185523888836
H          -0.10771754052029    0.61558015828286   -1.23736764798596
H           1.49806537546865    0.04186575652541   -1.48009257960351
H           0.52058743096185    0.56044985835498   -2.81962844710314
