    26
        -50.46651766  Gyration_radius:  2.50533722128 Dipole_moment: 3.404
 S          -0.29183923116526   -0.53914437940804   -1.76418312419404
O          -1.41818696665612   -0.55725403176214   -0.83854736546062
O           0.14067440210995    0.80852421088195   -2.07896788477948
O           0.77911091515673   -1.41338485083215   -1.33315962035305
O          -0.83095419942604   -1.15855360867733   -3.11827227195919
H          -1.45915427405415   -0.50428365438781   -3.40610409330500
O           1.13999037984649    1.16921805464977    0.41309653188515
H           0.99388861664054    1.01006445346806   -0.53172604460960
H           0.25412029224159    1.39277847727195    0.77079250929928
O           2.66614814308863   -0.36473611958201    1.90514226616843
H           2.13655429682261    0.31503170728098    1.41762965906307
H           3.52317822621026   -0.37950421392624    1.47604946740099
O          -1.14194693472111    3.09029096913541   -1.40330640835527
H          -0.70325560771268    2.28184697890761   -1.73182464289361
H          -0.47358368327379    3.77700222454769   -1.43119701928647
O          -1.58096154629178   -1.31823338550382    1.72425922295348
H          -1.71918664195765   -1.18182884188896    0.76566744529319
H          -1.64527878461509   -0.43476583305700    2.10282957417577
O          -1.48821908235436    1.54573023058586    0.83977196029108
H          -1.57398700243995    2.33715554680175    0.28325643588178
H          -1.61007728265953    0.81298414434792    0.20747292566718
N           0.86742960850550   -2.16327302109109    1.16343368333043
H           1.04633949860085   -3.15028465023148    1.31028349776984
H           0.83675286331005   -1.93407387273377    0.12513563831305
H          -0.07449269786853   -1.88237522901312    1.55331701166618
H           1.62693670265602   -1.55893133577425    1.57915065603496
