    26
        -50.46880385  Gyration_radius:  2.4553257109 Dipole_moment: 4.149
 S          -1.40967617023863    0.91026579318645   -0.96816888235386
O          -0.00821164989529    0.81360903894485   -1.32192990894670
O          -2.21789454490823   -0.18595967745818   -1.44631779199348
O          -1.56726291270267    1.12098889215817    0.47449208942345
O          -1.97848668740076    2.20957169384104   -1.67225567953003
H          -2.82789338838096    1.89279087570775   -1.95992508130653
O           1.11346762237995   -1.48886975233530   -2.24817927155232
H           0.65849622291062   -0.63346149250279   -2.15818060733497
H           1.95423512028326   -1.36990471570984   -1.79567444493984
O           0.51554538267173    2.18989479399922    1.74113059123964
H          -0.23541827107270    1.86382393962672    1.20173194266653
H           0.16529845667303    2.89642053330952    2.28493094597380
O           2.46971526079339    0.34802225890857   -0.38077474110992
H           1.57555822737235    0.59421436053950   -0.69153764122882
H           2.96347059176881    1.16864612138694   -0.34014465232293
O          -0.94434585538859   -2.45484655578186   -0.83173749155388
H          -1.56069367407654   -1.77847633957634   -1.17651116004094
H          -0.14033384014888   -2.34525524848720   -1.38383132565493
O           1.63246317322073   -0.25533770858692    2.09836951183718
H           1.33248272407358    0.66642284243807    2.21289276380326
H           2.11035073761179   -0.22630968048869    1.24395744951796
N          -0.72410889722062   -1.20354213996107    1.44262781844149
H          -1.18021787337765   -0.30551176608279    1.15373508937773
H          -0.73139471439539   -1.83368338390790    0.57116951141039
H           0.27147341782851   -0.95275061377554    1.74909645284825
H          -1.23661846837586   -1.64076207938946    2.20103453332762
