    26
        -50.46851032  Gyration_radius:  2.45272613543 Dipole_moment: 5.011
 S          -0.79664059358938    0.97692925400337    1.64496326089473
O           0.61528281001971    1.32597321874404    1.71141820328431
O          -1.44067080105206    1.59887054802801    0.49458511600278
O          -1.04953922858578   -0.44420872579308    1.72482246109401
O          -1.46713015064108    1.61920124640846    2.92645120677387
H          -1.28027227270939    2.54352532803022    2.80229099748100
O           0.55730141346410    0.34000864580317   -2.92785412768208
H           1.00139139924516    0.82573075882838   -2.20810570143365
H           0.95403096678190   -0.53610198774967   -2.92854190904039
O           1.51375673358345   -1.58224496599947   -0.50599808561482
H           1.64544356015613   -1.70954984327672    0.45600066368880
H           1.66400632014389   -0.63301903225803   -0.63357415071275
O           1.46250471237002   -1.27515849596626    2.18312665783007
H           0.49373981076941   -1.18660102825428    2.17872172142033
H           1.76466543238887   -0.36559094908614    2.27824066646584
O           1.71517440819503    1.21312076074648   -0.63151830187587
H           2.50702356373696    1.74854178808471   -0.55867564082548
H           1.24749182767867    1.30196610864683    0.23852824141004
O          -1.10684670621051   -2.13762146659621   -0.37459567423618
H          -0.13113009746085   -2.11767735211744   -0.51222633212924
H          -1.22643530188192   -1.75880360529622    0.51460346810731
N          -1.75268596238183    0.05775102683489   -1.59739935388943
H          -0.95671013461170    0.24358106608498   -2.25437459085816
H          -2.64988742006150    0.14221916790799   -2.06080819483627
H          -1.60018279858756   -0.92422778399159   -1.17668970188138
H          -1.68368150076065    0.73338634823483   -0.78339088944190
