    26
        -50.47003589  Gyration_radius:  2.62235146466 Dipole_moment: 3.726
 S           0.55906741193606    0.29364232681962   -1.55528799124635
O          -0.44394304764283   -0.62713252821962   -2.07238219664466
O          -0.03905093149351    1.57303658479976   -1.18496871145978
O           1.29543038293822   -0.28821229093763   -0.43841518676420
O           1.60592583810288    0.56074012648445   -2.68308117993673
H           1.05338820021336    0.94825939038317   -3.38927851819414
O           1.81171110322626    0.89406384229238    1.99427659347242
H           1.01976676850197    1.44707594156268    1.97166908095946
H           1.88924213497097    0.53448870659809    1.09450064808578
O           1.11474507002453   -1.26812952215911    3.40818250942302
H           1.86437703444598   -1.85947768980114    3.48474526099542
H           1.46965320683147   -0.42322905697698    3.03894297721442
O          -0.60644695404950    1.43351100765214   -3.83731391784008
H          -0.67835583300577    1.95680126368440   -3.02719781243132
H          -0.93879926260769    0.55988727566606   -3.58873864961263
O          -2.01756601234936   -2.13821568541201   -0.57146750704884
H          -2.05947457510564   -2.99778081662842   -0.99286432582709
H          -1.49724210105788   -1.56651501870840   -1.18196592248323
O          -0.83847558277222    1.70469768578309    1.28534648524373
H          -0.52600856248444    1.70834717108418    0.34380903706986
H          -1.47737912433359    2.41541042684263    1.35429299501548
N          -0.53479782549212   -0.99760864748688    1.33035657269043
H          -1.23598989093288   -1.61288830116128    0.87735100527114
H           0.23529240974915   -0.83907374864518    0.62689391711314
H          -0.92759675577619   -0.05648900012653    1.50617017771043
H          -0.09747311185862   -1.35520945336171    2.20642465920530
