    26
        -50.46978694  Gyration_radius:  2.50720482026 Dipole_moment: 2.231
 S          -1.27236066553445   -1.12480270907719    1.31660911311493
O          -1.93209671555379    0.16444387939234    1.19517067914779
O          -1.64338598332077   -2.04516668554958    0.26453583901525
O           0.17369510981267   -0.99529554900531    1.46505343580309
O          -1.77307194723943   -1.76935813485463    2.67405248598168
H          -2.62848966883356   -2.10812419470136    2.43205958230547
O           2.88234011158082    0.94822252997217   -1.01834207725735
H           2.11545819483410    1.58108137291498   -0.90358303170986
H           3.50450659680062    1.17498126669111   -0.32528859059951
O           0.25865506276439    1.61633397959068    2.05120223101892
H          -0.70103284666555    1.69465127312575    2.06988494448532
H           0.40400659840931    0.65771142997058    1.96285373882385
O          -0.71215487785117   -1.32532394081409   -2.11114670250274
H          -1.17192152788995   -1.74522881203453   -1.35318527900905
H          -1.00248471407119   -0.39726304482991   -2.07626276149671
O           0.80498721150555    2.41155237852057   -0.47133936136413
H           0.68825236079524    2.25804307291360    0.49141977921891
H           0.00893935994752    2.03917020609987   -0.88335352529233
O          -1.53957688562850    1.11227300297068   -1.20110337041530
H          -2.32031160854612    1.60785146584901   -1.45389976468598
H          -1.71636487515865    0.76404732540141   -0.29137093791623
N           1.53771771702971   -1.31684764915811   -0.77234315679100
H           2.09370742614793   -2.16130539502599   -0.84851946684975
H           0.72759456709237   -1.33221595523965   -1.47103358681371
H           1.07873156805201   -1.25847267646639    0.17249520555358
H           2.13466042152112   -0.45095845665095   -0.91456541182158
