    26
        -50.47150369  Gyration_radius:  2.40156949441 Dipole_moment: 1.567
 S          -0.69878400072172    0.83773851605943   -1.45069665254362
O          -1.81055708422248   -0.05094308093046   -1.16175849022451
O          -0.37284243702983    1.66312938140845   -0.28992900081701
O           0.45507013001622    0.15670031038461   -1.99031224897219
O          -1.18458205102291    1.83848157570559   -2.56975951451996
H          -1.89488041738832    2.30293388830174   -2.13884077459287
O           2.29448908994876    1.62240630142847   -0.49341722378155
H           1.35621187649036    1.84203974701885   -0.35001382522066
H           2.29681762826174    1.17512142306111   -1.34532623287031
O           2.41945445439569   -0.34539628126833    1.32975643824552
H           2.28248806811258   -1.07478934023790    0.70396412237423
H           2.57064103643859    0.44322072754371    0.76160351615149
O          -2.85471473104237    0.47397208727812    1.29251641002342
H          -3.55782097328275   -0.16847242051109    1.40145443287656
H          -2.54087091808840    0.36628421844022    0.37835606008415
O          -1.00521067721008   -2.03629541163085    0.46481152062838
H          -0.14762189397249   -2.28711766224248    0.08399806779248
H          -1.43319302626925   -1.47767987524274   -0.21157978129904
O           1.46006073665349   -1.92579570609984   -0.75344945053455
H           1.10327924139310   -1.15176294337314   -1.25154477392365
H           1.87306501367226   -2.49473594773282   -1.40470867468602
N          -0.12313553748669    0.06317658601247    1.83177811378772
H          -0.51036912826606    0.33294613030456    2.72950982135407
H          -0.57786194796779   -0.82439008545644    1.47603074432107
H          -0.33261646303459    0.80189823940528    1.12129097851192
H           0.93348399162404   -0.08267036762653    1.83626641783965
