    26
        -50.46547031  Gyration_radius:  2.52328140248 Dipole_moment: 4.983
 S           0.57525993122095    0.57467272746113   -0.34362143094613
O           0.57723468762789    1.29852988072135    0.94601324027298
O           0.25653702597820    1.43432633223780   -1.45487104664025
O           1.80046253659971   -0.18874743148646   -0.48511914752725
O          -0.55200983140817   -0.50710439051469   -0.21381480813376
O           1.91761628117939   -2.81380730172461   -0.32333031618585
H           1.90448059037320   -1.83964345537996   -0.46773937935123
H           1.80666028719086   -3.20944468835173   -1.18845922358029
O          -1.41863238809655    2.95169630426986    0.30367925911579
H          -0.65973966754325    2.45834102639968    0.66649618391923
H          -1.12897123362142    3.24777645835816   -0.56405890722903
O          -1.94860859575471    1.30226390644958   -2.93621272819898
H          -1.78049737874362    0.73424803179417   -3.68886468410715
H          -1.08718146300561    1.42080288817493   -2.48394653367424
O          -2.71928612755736    0.74541110372349   -0.41661506916382
H          -1.47199695983211   -0.03062426949461   -0.27586514603239
H          -2.45365211501652    1.61336530998552   -0.03084630127922
H          -2.73664839282822    0.90213036418268   -1.38169998744870
O           0.10162858655950   -2.47321024900346    1.59530429558193
H           0.71242328373687   -2.89831815840196    0.95563240346482
H           1.08560540034510   -1.39269973344728    2.11199903987732
H          -0.46507621822558   -1.91399914843467    1.03925209975536
N           1.77609933036000   -0.56524576163404    2.18965967862810
H           2.53418729124390   -0.73435903543444    1.52627578570434
H           2.11740390257180   -0.42019860726690    3.13456776226664
H           1.25670124664153    0.30383789681576    1.78618497091259
