    26
        -50.47399129  Gyration_radius:  2.38929777037 Dipole_moment: 4.407
 S           0.23405037221269   -0.74763371743586   -1.20294212208695
O           1.12262928050524   -0.12597419218113   -0.20842774488384
O          -1.03751955931328   -1.11749417698663   -0.54880822983306
O           0.01578521382892    0.09595559904206   -2.34390398198061
O           0.90587536451176   -2.06347959580037   -1.66465164340748
H           1.27579564920312   -2.44604758815246   -0.82759040958848
O           1.79231076275093    2.39718975839628   -0.83112817286852
H           2.37531826150327    2.35945777981656   -1.59128355340987
H           1.62527323784038    1.46848859387593   -0.57438211777140
O          -0.70800255228146   -2.14239150125932    1.81826289854925
H          -0.88436613872151   -1.79341328385318    0.90738922830191
H          -1.33409316054485   -2.85323468333522    1.96244287845803
O          -0.75676011058557    2.53688802118755   -1.61705897468696
H           0.13554228599996    2.78934231709858   -1.29606977676114
H          -0.58119533223008    1.71723991324005   -2.12422414890086
O           1.77365314580201   -2.55306548460417    0.73638091238843
H           0.98215827823368   -2.60855341470786    1.30248644570781
H           1.98540651003013   -1.60936569386867    0.69679391970346
O          -0.03683382517533    0.58526858833146    2.11490239728993
H           0.56150574692044    0.42790850909272    1.35823164710714
H          -0.28099204872433   -0.30025533861982    2.41760475731685
N          -1.86642662623878    1.21466364781731    0.31861057312879
H          -2.83220786773535    1.41997101924777    0.54956409401804
H          -1.75086235307398    0.25590007966234   -0.10216363930628
H          -1.47323683742180    1.89941423031335   -0.42152398419414
H          -1.24280769730689    1.19322061368034    1.17148873771977
