    26
        -50.46547034  Gyration_radius:  2.52312405834 Dipole_moment: 4.990
 S          -0.59987811721708   -0.18470681945320    0.62037255278859
O          -0.41615425579829   -1.21709103963939    1.60823633077526
O           0.50128349932960   -0.35207639446041   -0.48289114785526
O          -1.85526303475998   -0.23974280859254   -0.10415199473917
O          -0.39731037201691    1.17030780732701    1.17727311953334
O           1.55104753084361   -3.00683360922556    1.63180963035226
H           0.76659154873248   -2.42376870850373    1.70489154950323
H           1.26089486628758   -3.78866664627165    1.16076398251508
O          -2.02890378432530   -0.38256900655467   -2.72697509448246
H          -2.00654975239725   -0.40797474292571   -1.74260231767799
H          -2.05396331202841   -1.29623712218003   -3.01313613654153
O           1.53598484213310    0.45230842616465    2.87290395648263
H           0.82176519074147    0.85831754023263    2.34750143013110
H           1.13488418618503   -0.32181813577815    3.27835537430179
O           0.05062968413423    1.28003240302814   -2.65025768772796
H          -0.65721682215473    0.68856707996756   -2.98503197669389
H          -0.81721969935147    2.06122477664901   -1.63117955974405
H           0.54893027487915    0.72005107934700   -2.03280161308858
O           2.65467469856134   -0.71109873644126    0.75816159625038
H           1.41732486305202   -0.48746033380838   -0.01382176727838
H           2.47239927864280   -0.18849663234915    1.57450803790140
H           2.53969510851739   -1.64235595204155    1.03355300398426
N          -1.46454602008217    2.33820356161348   -0.81149413698040
H          -0.98167913180885    1.97240489998262    0.09448812009101
H          -2.31413846590094    1.77631855331822   -0.88752535413556
H          -1.66328281419955    3.33316055057895   -0.78094991766220
