    26
        -50.46618600  Gyration_radius:  2.5001010885 Dipole_moment: 3.687
 S           0.59543823833029    0.47416087934352   -1.76140147815738
O          -0.78100854860132    0.39005364600953   -2.20582674995921
O           0.67168136148064    1.07790526335343   -0.42184178394422
O           1.32453093182114   -0.76514344261367   -1.82552568906402
O           1.31727306253340    1.49129117192667   -2.73657508417220
H           0.64853049522744    2.14405286987640   -2.91988211274519
O           0.45508387289468   -0.62134385061482    2.93900500990285
H           1.21831440312127   -0.91484215779953    2.40873565434917
H           0.56268546734738    0.34796194716775    2.97972911298645
O          -0.69242401476344   -2.32653252907775   -1.13983562112289
H          -1.34916458438433   -2.09748116877761   -1.80232885921592
H           0.13680302782781   -1.90631791573002   -1.44949796583217
O           0.97959756608716    1.96157421994272    2.19956390676570
H           0.84031469562304    1.81649433565476    1.25172647915505
H           1.92370266804749    2.09258300985723    2.30779741384199
O          -3.03225857900943    0.46875658806802   -0.72831746262535
H          -3.74673716385468    0.86842565870785   -1.22463514772482
H          -2.25338538311888    0.46918788228159   -1.31920677802608
O           2.23986694986113   -0.77339811047347    0.86697831626164
H           2.44496245959567   -1.44962927295321    0.21755670664882
H           1.80920374741001   -0.06971838749960    0.35481973968666
N          -1.08521489844130   -0.54520358960664    0.82354746424889
H          -0.50850475672165    0.18804740768805    0.35963117597204
H          -2.05741343320507   -0.22889883999162    0.82185630889428
H          -1.00514919194131   -1.39755189359197    0.21669848076850
H          -0.65672839316464   -0.69443371114639    1.78722896311198
