    26
        -50.46116266  Gyration_radius:  2.44614098453 Dipole_moment: 5.288
 S          -0.66585450617017    1.81068603657244   -0.87701259289020
O          -1.40569580325830    0.57256438554799   -1.08711326455887
O          -1.10544134326536    2.47043947787525    0.35332872398965
O           0.76078072370327    1.62514956516333   -0.93243157358689
O          -1.05634994790853    2.77969235696540   -2.06070987330573
H          -1.99790245045739    2.87271412415926   -1.95499210694485
O           0.17442940223279   -2.39296672315944    0.62578424531110
H           0.78087867914601   -3.12256832056731    0.75752889391919
O           0.29871012600243   -1.35426904128611   -1.99800474337686
H           0.09854629209394   -1.96919478168330   -1.27842907180782
H          -0.27195233000746   -0.58461942636780   -1.83332471259067
O           2.86356981759913   -0.75541859809390   -1.31886530817169
H           2.97988872980557    0.14057766034171   -1.64324665629724
H           1.99946015964029   -1.03778632415025   -1.69178774739378
O           1.54928497853905   -0.09655263677307    0.88003518890443
H           0.69937665232135   -1.56533036638734    0.74222348463581
H           2.30518157471911   -0.45396118866463    0.36467385295239
H           1.22551105462071    0.59210026428786    0.25191960965130
O          -2.14349251937106   -0.99352055285204    0.93405436010794
H          -2.05634564743108   -0.46411083264242    0.11140401174096
H          -1.53548193220755   -1.74105045135264    0.81434655318111
H          -1.35484080616449   -0.03703532008329    1.84614405318223
N          -0.69002697940537    0.73503960489471    2.21013995518856
H          -0.85846931673616    1.55490503995806    1.53455343227053
H           0.28046777003920    0.41924646676891    2.07710716694187
H          -0.87423237774712    0.99526953166821    3.17267413889177
