    26
        -50.46116257  Gyration_radius:  2.44549752636 Dipole_moment: 5.321
 S          -1.84537089539831   -1.03874409899002    0.00436949518170
O          -2.11550283243868   -0.94636354111046    1.43982518887347
O          -1.74690894557108    0.29058536893717   -0.58524867546768
O          -0.70896474072216   -1.86943426089420   -0.29803427640747
O          -3.11121464033344   -1.72863248640451   -0.63925642025584
H          -3.82016927913058   -1.14491856749774   -0.38809367935810
O           1.73505650618926    1.72744436006097   -0.40500317565924
H           2.65000221427691    1.87410704368348   -0.64741329890548
O           2.06616689866135   -1.66758710550791   -1.85605636723486
H           1.46751440329010   -0.96919450244104   -2.20134797831964
H           1.51059905628123   -2.44857100042326   -1.80083008766841
O           0.29696020363806    0.32789242963984   -2.39339896963125
H           0.76156078806088    1.05653490107011   -1.95844936615652
H          -0.50926522418065    0.19698072142629   -1.86617853205587
O           1.50674156549254   -0.76837796133291    0.56760651305077
H           1.68357654494075    0.81360465865165   -0.03578198153344
H           0.64778555659407   -1.18063752889112    0.31098656894703
H           2.08623309877932   -1.13297161796863   -0.13659138775669
O          -0.66819837691315    2.34150316165468    0.72274218194244
H           0.16878141206673    2.44227416302773    0.24080535446614
H          -1.20155634291824    1.72578646205122    0.17397906785319
H          -0.32036109162399    1.33483882376430    1.83313042428639
N          -0.14995420560805    0.42159128484068    2.38792294270362
H           0.69928970767601   -0.02927726715897    2.02080903193209
H          -0.98669773310631   -0.19871835134343    2.12001834775384
H          -0.09610366797286    0.57028493113626    3.38948906940406
