    26
        -50.46400343  Gyration_radius:  2.43620878608 Dipole_moment: 6.320
 S           0.97559404328515    1.91635133441506   -0.66951862223788
O           1.40593248863674    1.66924165754478    0.68627836620299
O           1.92476369152833    1.47990506118785   -1.66799195707431
O          -0.37886620966090    1.41813251468253   -0.92076558490803
O           0.84270437405920    3.49366985659392   -0.83362511281396
H           1.75329119635727    3.76238309959121   -0.77681477333380
O           0.77543245037255   -1.96292813707941    1.29301126114733
H           1.38720885572428   -2.64137934530680    1.58100735952988
O          -1.94839717736347    0.79101840824095    1.10526379355381
H          -1.45512715308783    1.21799321850157    0.36923560519294
H          -1.90775902391592   -0.57448362420379    0.64114894307078
O          -0.83180286593117   -0.76782845276292   -2.21404413828320
H          -0.62738858081260    0.10920162616387   -1.78532097145618
H          -1.20720244829704   -0.55773036481788   -3.06989966602177
O           1.68840842500654   -1.03776023080524   -0.97075046042617
H           0.98740443115379   -1.22604087229598   -1.60817376118431
H           1.93577992300723   -0.10638774923455   -1.15005764738748
H           1.20090088828323   -1.53095924755686    0.50198017681584
O           0.13070005382971    0.43966949179524    2.65126511832671
H          -1.28544668457386    0.75692736931511    1.84763442912355
H           0.39987182044555   -0.46250866177566    2.42884125350106
H           0.67566920455279    0.99954030377850    2.05977284935309
N          -1.68799247834452   -1.58952122452812    0.22522872718891
H          -2.45368022555590   -2.23822988014834    0.36322370547922
H          -0.82027417866201   -1.91372349439423    0.69544496807339
H          -1.47972482003812   -1.44455267690154   -0.78237390143264
