    26
        -50.46547025  Gyration_radius:  2.52318365898 Dipole_moment: 4.979
 S           0.62664594197094   -0.45996258013038    0.41877439771799
O          -0.27134975308391   -1.63492058349986    0.40800951209265
O           0.66822999059484    0.11978510745215    1.74771441749949
O           1.91177520614676   -0.74636543895438   -0.16590527587866
O          -0.08939263954955    0.62130613873918   -0.46214739369344
O          -0.45851205109181    2.41388427687425    2.37811907298087
H           0.15921774400555    3.13597952259013    2.25869474305754
H           0.04143730813822    1.59231427432255    2.16546524978983
O           0.61086176744713   -2.59906722201833   -1.92022181036578
H           0.21936700044764   -2.40261439785017   -1.04892022041139
H           1.56110192855760   -2.55735704550609   -1.77924161470432
O           2.84461363023379    0.27063228731196   -2.43984344120859
H           3.34286899430595    1.06413026980152   -2.24107130504063
H           2.62074564322633   -0.13631760739647   -1.57678774557512
O           0.21191942329655   -0.13425666594642   -2.83809722802265
H           1.14678588043656    0.11504007340186   -2.98001041827500
H           0.23509218049836   -1.11153722751497   -2.70680425433923
H          -0.00430198332129    0.34084634228093   -1.45781896084923
O          -2.37614707725551    1.58082029620331    0.72813818319852
H          -1.85419027518511    2.13968446495787    1.34318899045348
H          -1.75177859773521    1.37650539870395    0.01297801100929
H          -2.27191839574302    0.26051859397538    1.53333217369122
N          -1.91299875711387   -0.61366465331880    2.05732256406442
H          -1.30183149127102   -1.16658215912463    1.34437394520742
H          -2.66059708409523   -1.17247683021266    2.45631839135263
H          -1.24764452385701   -0.29632465514100    2.76444000623952
