    26
        -50.46400341  Gyration_radius:  2.43646137905 Dipole_moment: 6.316
 S           0.13028537304914    2.22168761870006   -0.34908148967106
O           0.43586197538557    2.74790262231665    0.96172618785772
O           1.26358396188759    1.61945740598904   -1.01033120153715
O          -1.04154607581712    1.34246525028470   -0.34634274182198
O          -0.32033355866121    3.46213583874125   -1.23813322767651
H           0.41641173296638    4.05164795025661   -1.11859475059624
O           1.65645734983284   -1.75392446097370    0.55355030562426
H           2.42517203631953   -2.13610786721948    0.97839688785068
O          -1.12370521521627   -0.74703386435473   -1.95551359337284
H          -1.12661482387158   -1.58274882360016   -0.77961161436318
H          -1.18894076382925    0.13216684075197   -1.51953448196383
O          -1.77025342081911    0.01802164529395    1.74409817080472
H          -2.57890983129625    0.39569646583554    2.09201796269258
H          -1.50805130671350    0.59942343613322    0.97714159499326
O           1.48647617395677   -0.77993659628912   -2.10273458511142
H           1.72952410120542   -1.26059891882952   -1.29913588633374
H          -0.16741712824918   -0.80799156788871   -2.22685099502599
H           1.52184645517154    0.16146943874087   -1.83283792718055
O           1.02386765410006    0.37820533961266    1.91959590060905
H           0.98067179402663    1.29154039019982    1.56609754638522
H           0.12878661115236    0.20262927062053    2.23772182667559
H           1.50532364519049   -0.87708281939312    1.00282978539048
N          -1.01181818481154   -2.08810522417480    0.21195269609675
H           0.01017330764386   -2.16206336650516    0.38284808373438
H          -1.46279037582360   -2.99474739917618    0.23876660688573
H          -1.41406148678170   -1.43410859507203    0.91195893905419
