    26
        -50.46547034  Gyration_radius:  2.52321842246 Dipole_moment: 4.984
 S           0.39701842521562   -0.69453408197464    0.37332042429117
O          -0.69263889271221   -0.74295565147361    1.37206500326646
O           1.69907143619697   -0.61879015264661    0.98518555212351
O           0.23036851256598   -1.76263208761896   -0.59379323942991
O           0.15596618266027    0.62091711545527   -0.44478582110306
O          -0.52111905743988   -1.37713319138347   -3.08704797214132
H           0.24162098544198   -1.25366370880071   -3.65296404910535
H          -0.16386688309969   -1.55576335901334   -2.18673383111316
O           3.34804054697521    1.46502947369053    0.87122861109295
H           3.93237155316247    1.35447322952209    0.12045208239822
H           2.84122239922453    0.62978975127343    0.94979543904025
O           0.51506145273782    0.86140165215907    3.13172397764963
H          -0.02918365575202    0.23441054244659    2.62022909388069
H           1.38937449962132    0.46232166231415    3.16150811499205
O           0.86839664231199    2.49763054915990    1.06416381300866
H           1.84012034011043    2.41898549102401    0.98797782866156
H           0.42291856708138    1.42954019690234    0.14870463036461
H           0.65738042748133    2.10194992586076    1.94264016755378
O          -2.10433089037586    0.47120297744213   -2.00475574564825
H          -1.37938536971106    0.88401234401146   -1.50765942892581
H          -1.64591198976657   -0.09210016527753   -2.66468872899109
H          -2.47418726898837   -0.65923279241506   -1.01091127443261
N          -2.44236852156166   -1.48507979307075   -0.31487421812745
H          -3.36335687195209   -1.78150504872114   -0.00780217929867
H          -1.80166618815061   -1.16603397211947    0.50701665403134
H          -1.92091639127805   -2.24224091674558   -0.75999488404201
