    26
        -50.46183250  Gyration_radius:  2.40565002553 Dipole_moment: 6.593
 S          -0.06228784165692    1.60252583489803   -1.21155939324981
O          -0.87765293424630    0.94655853467029   -2.19650057556697
O          -0.84804757610763    2.14736895040352   -0.09661611400124
O           1.05141464317340    0.81848727150134   -0.71424102323374
O           0.58669609851327    2.85999352176812   -1.93346197464234
H          -0.06213596899819    3.10064016796438   -2.58796751823792
O           0.47741867725042   -2.06688973573427    1.28665728425832
H           0.11532925220176   -2.94574860323182    1.40586812376746
O          -1.34296224430227   -1.76697114933466   -2.04251987873532
H          -0.39012770144652   -1.98621697031355   -1.98130793683665
H          -1.35419740666879   -0.88190545090848   -2.43622651012874
O           1.30187152398276   -1.79565845126695   -1.42591073808755
H           1.31292434077179   -0.82590697313506   -1.35470068639806
H           1.27820122280302   -2.10712127411478   -0.51085473036921
O          -1.48139512236163   -0.55199882960205    0.27669983514887
H          -1.60610740102692   -1.12088518285596   -0.53183148531694
H          -0.25199749492008   -1.51502347136947    0.91513662811960
H          -1.33199804980052    0.32739355809889   -0.09204833598891
O           1.92138255869024    0.20281054284124    1.71109151404243
H           0.60591379058218    0.78447435132873    2.17052308555655
H           1.72858812393338   -0.74851180270070    1.68646235153587
H           1.83707351407122    0.49262876867614    0.77704914196129
N          -0.41153802452606    1.17080392972157    2.25229008785236
H          -0.57934292141360    1.70038488415055    1.33097173377724
H          -0.54904121303403    1.76919678726645    3.05940687242141
H          -1.06798184545748    0.38957077126219    2.24359024235518
