    26
        -50.46183273  Gyration_radius:  2.40578931075 Dipole_moment: 6.574
 S           1.93029273940676   -0.54440645554426    0.13485122005321
O           1.54087219181453   -1.42188659355930   -0.97661819203308
O           2.41833567575836    0.73199206648868   -0.31008264506411
O           0.87801655198624   -0.48672567754337    1.13082706683069
O           3.15358580542326   -1.26815007016901    0.84444589349128
H           3.91459520453743   -0.91785058415261    0.39110421210905
O          -2.34453154761444    0.76379422484953    0.28554513342111
H          -2.91683507430969    1.47132115065240   -0.01382746300197
O          -0.22637171551728    1.90605845685652    1.80807619715501
H          -1.11904757721821    1.63069274269416    1.55859469567354
H           0.31421840879220    1.10373404964107    1.71015964362313
O           0.70539870690805    2.88078127742541   -0.54930622031379
H           1.55629600536051    2.41815263980951   -0.53115157772712
H           0.36461810266087    2.78494438894457    0.36417742010569
O          -0.30534227828766    0.63162555544827   -1.44005978236138
H          -1.59669754250238    0.72164185439066   -0.35753277159775
H          -0.01449245816893    1.57154744328781   -1.28226303209029
H           0.49583997568480    0.12086070647117   -1.27046939816886
O          -1.51338339547730   -1.60819785864892    1.33326348553191
H          -0.60191621705844   -1.27868308795747    1.48911304771737
H          -2.04855944039733   -0.80299461663258    1.24350413554309
H          -1.28815084911691   -2.00677528389569   -0.10541861094274
N          -0.94180492558475   -2.10864563651526   -1.13545789989773
H          -1.30514445181530   -1.33224630309144   -1.68910535219603
H          -1.17155769202227   -3.00586201765962   -1.54851668233413
H           0.12176582673196   -1.95472238156708   -1.08385253350423
