    26
        -50.46547034  Gyration_radius:  2.52332169992 Dipole_moment: 4.987
 S          -0.56715373663387    0.49336017233480   -0.46269720355787
O           0.47784507899011    0.67423258822884   -1.49346754293093
O          -1.79394889314352   -0.02627002399348   -1.01079503949026
O           0.01403430831369   -0.56145273171370    0.54099539696105
O          -0.70556877428552    1.70623874442057    0.32066546321500
O          -2.81619728641354   -2.43197788319415   -0.51879553754876
H          -2.55449098591091   -1.51448150434546   -0.74320682020247
H          -3.41509027760631   -2.36552709238465    0.22571289980350
O          -0.23272497204788   -1.45357008920255   -2.94131881953679
H          -1.18223558428116   -1.31493549578230   -3.00259951381702
H           0.11609922116956   -0.63037002323709   -2.55192562289371
O           0.09884866808561    1.93915145037987    2.81659646649758
H          -0.28502079081050    1.86934171182618    1.91228293148704
H          -0.60744619543851    1.70775147198374    3.42067086017562
O          -0.14764772693363   -2.77505550363352   -0.63397470418577
H          -0.01755060277195   -1.49542996329305    0.08934182813188
H          -1.10490734398038   -2.95016971053386   -0.53779433313588
H          -0.04368600449963   -2.48164514606368   -1.56986648058517
O           2.13399250039378    0.43717175708911    1.98115693461835
H           1.53410181200966    0.95370183735847    2.56100032877260
H           1.55260021365869   -0.22885838716055    1.57933894152628
H           2.19281039878102    1.45275520494385    0.81146982040416
N           1.94462037049441    2.11796668281328   -0.00294841055117
H           2.75344686629544    2.59900396523609   -0.38347780980480
H           1.23296832605847    2.76727076160289    0.33664638416250
H           1.42230141050752    1.51179721632177   -0.74301040751568
