    26
        -50.46133334  Gyration_radius:  2.45232550165 Dipole_moment: 4.960
 S           0.35544743234672    2.05778008588285    0.34573347991971
O           1.60948865801481    1.33321522588050    0.36554684707958
O          -0.57794841018059    1.54838366031389   -0.63637977076403
O          -0.23863251218858    2.13588776656571    1.68076889837857
O           0.68842316496592    3.54365704754590   -0.07982251764417
H           1.35058817410615    3.80323009510200    0.55317888984701
O          -0.94737652726362   -2.06713675738203   -0.95865025109746
H          -0.68883244831878   -2.95914679500390   -1.19354628262139
O           0.59557530720001   -0.16972400833666   -2.38547139667967
H           0.30629183178216    0.57778419153081   -1.83348030753478
H          -0.09614944817632   -0.83569548234222   -2.27261247552581
O           2.62902931078319   -1.46692415192753   -1.16297801449537
H           3.26077801800972   -0.78453855567870   -0.92771017646878
H           1.96800612459624   -1.00880733599245   -1.73124249988192
O           0.89107925224941   -1.15260888623688    0.80448146450089
H           1.60113151632120   -1.57098424439515    0.26674390696245
H           1.12830221758942   -0.20078242684282    0.70676669786429
H          -0.27674205876886   -1.74252449873582   -0.31459133758039
O          -2.64791103937410   -0.07965025208168   -0.18161192996958
H          -2.00478882159179   -0.20772437302411    1.21861969189448
H          -2.06789299000953    0.64886979904492   -0.48463987094282
H          -2.31633389015846   -0.86549459696661   -0.64541950303499
N          -1.31784586752193   -0.17215257721598    2.05081952168067
H          -0.90716954991277    0.82140090414521    2.02065781777495
H          -0.53569135721971   -0.81341694799601    1.85441954020709
H          -1.76082606731229   -0.37289689583782    2.94041959819559
