    26
        -50.46633010  Gyration_radius:  2.51124550517 Dipole_moment: 2.619
 S           1.83690665063572   -0.62056257064394   -0.78935576777182
O           1.75476531411832   -0.33953296149699    0.65332864242009
O           1.85008231453061   -2.03732463600161   -1.06675603796350
O           0.86921924188706    0.14872070779901   -1.52623180057631
O           3.27037219797241   -0.08055458005364   -1.22913365726263
H           3.82816208096737   -0.83117391198468   -1.05235887066720
O          -2.32579743039396    0.64222700091047   -0.57107709294827
H          -2.61796189273421    0.29906241668742   -1.41667728372248
O          -1.77525523931975    0.76144645452181    2.28275010151009
H          -1.52205242675126   -0.13797362190790    2.01643056492019
H          -2.42005768047833    1.03654998921128    1.62100048618832
O          -0.54684353712819   -3.13546450416617   -1.18523525765795
H          -0.41418882829100   -4.05552698872077   -0.94953351718734
H           0.35269383056132   -2.75541290972448   -1.29729123264636
O          -0.34445012155201    2.43203465275676   -1.02372517804530
H           0.18096074515427    2.25717603999940    0.41760912019071
H           0.20305660451257    1.72167046004947   -1.41999779443481
H          -1.22095276096948    2.00483329132088   -0.94033761960527
O          -0.78275272881630   -1.21230585289346    0.65826676933356
H           0.16373000621428   -0.98661676384746    0.67322756393897
H          -1.72582818758917   -0.04669474843428   -0.20506765919876
H          -0.85541106836275   -1.97955268737968    0.05164299739147
N           0.49694541190876    1.85689221464374    1.36803015940933
H           1.01559419699347    2.52962046265842    1.92036460239752
H           1.09166434082874    1.01240754017699    1.13818562290179
H          -0.36260102392102    1.51605548653646    1.87194214910499
