    26
        -50.46133386  Gyration_radius:  2.45440181612 Dipole_moment: 4.896
 S          -0.74382471932360    1.96558260529472   -0.29205831961230
O           0.66223586500234    1.62957052700952   -0.21697977332173
O          -1.50887163840888    1.02812220586217   -1.08821153743183
O          -1.33659260480596    2.15207367429834    1.03268843064660
O          -0.83187260809962    3.36693940277670   -1.01929318091476
H          -1.77022076110925    3.50497628718683   -1.10242642133578
O           1.58797972165115   -1.85800388254651    0.30904989924575
H           1.69655176361617   -2.78048680732870    0.07456056120273
O           1.37154442619720   -0.27071696764289   -2.02570652047082
H           1.83862605627178   -0.79642252815977   -1.36225354819856
H           1.06487363389157    0.51571389532939   -1.54118964265590
O          -0.69888932358490   -1.94643015530880   -2.48582971899049
H          -1.37876146008762   -1.41561808655814   -2.90523008748529
H           0.09250173149853   -1.36079426504137   -2.45502708559144
O           1.90670390006955    0.40210082981892    1.80459985300432
H           0.46295200479916    0.15968362970644    2.30417486684849
H           2.12330769978637   -0.43051125031940    1.35477024549387
H           1.65358446172546    1.01390395538374    1.08304699595384
O          -1.04780711779205   -1.28968284153045    0.05256097529128
H          -1.25199056456105   -0.39770913861802   -0.31440435673301
H          -1.06978265273926   -1.83319900794193   -0.76739267203031
H           0.62816553248658   -1.65842778507025    0.21714636986991
N          -0.61119042316429    0.07126255280868    2.36460011867806
H          -0.94720044407196   -0.04998181707708    3.31344888013328
H          -0.90903366156085   -0.69813380706153    1.74709222202406
H          -0.98298876774494    0.97618878471371    1.91826345644544
