    26
        -50.46633012  Gyration_radius:  2.51092983146 Dipole_moment: 2.620
 S          -0.90973423613202    0.67116404536701   -1.76089794956011
O           0.50290272917058    0.26075545377722   -1.81739765981979
O          -1.78817431149939   -0.32614538172963   -2.32488151355823
O          -1.26397322323288    1.14104762447077   -0.44754648414585
O          -1.00750597681746    1.93171063801032   -2.73108966074815
H          -1.16243180487149    1.52134515839410   -3.57571325914173
O          -0.31875145601431   -0.31391101775705    2.43759707012267
H          -1.24031912473430   -0.36626562663063    2.69465923276305
O          -2.47714410163002   -2.23450622086855   -0.63739363099869
H          -2.37286457610963   -1.47899725910238   -1.25748519446178
H          -2.67009994777012   -2.99749543922226   -1.18536660337986
O           2.30969571925026   -1.14958488716112    1.51178403682340
H           1.81505826076612   -0.95252952438100    2.31540224067684
H           1.68067385898978   -1.63372712042297    0.95141820303967
O           0.01882922201316   -1.58440216833661    0.06984293417375
H           0.16977860340641   -0.98207676835648   -0.67944871565739
H          -0.27326483702307   -0.73585331811914    1.54971169795559
H          -0.86817902734192   -1.97274790987156   -0.08602555467512
O           0.15478319609030    2.18629317820734    1.51048520629032
H           0.00409574299329    1.41665989159407    2.09579157724879
H           1.38695185537582    1.69072233109095    0.72220448413274
H          -0.49445454994077    2.03810173004539    0.79084467185457
N           2.07086592148475    1.12529791734982    0.10929167183668
H           2.33484691266876    0.25729640569012    0.64399708159055
H           2.88561539671534    1.66319815333075   -0.16186661467621
H           1.51279971421523    0.82465011459979   -0.73791724763111
