    26
        -50.46633010  Gyration_radius:  2.5111875415 Dipole_moment: 2.618
 S          -1.03215678257817    1.42029871126164   -1.14001626650379
O          -0.42196802502910    1.61530157425844   -2.43384296023466
O          -1.61746619878050    0.07678352155540   -1.00043099340553
O          -0.20781255752784    1.75003017096231   -0.00735973743597
O          -2.27703829469134    2.41432850620859   -1.09509436117996
H          -2.54546233441542    2.43805645574721   -2.00787892526167
O           1.96035836907850   -0.36301840158756    1.47370132404877
H           2.65658177555093    0.28260941210937    1.34512578994112
O           0.35748093268401   -2.76028002455240    1.09345178370993
H           1.05835827717737   -2.39401302086157    1.64485714332890
H           0.57109618711179   -2.45715673995147    0.19539103579457
O           2.05799257337514    0.72860210351216   -2.60128216425994
H           1.19883430405583    1.20356308147889   -2.55199861014656
H           2.18969463067578    0.52248012478556   -3.52855013494170
O           0.85273457011333   -0.96822089567484   -0.92185157411666
H           1.56081271836804   -0.49393177769899    0.58387951137193
H          -0.03880052792238   -0.59831173094593   -1.04590528759350
H           1.42576056565164   -0.47525911430947   -1.54679035726879
O          -0.19981676177733    0.91484727207371    2.49109224437484
H          -1.13413946651163   -0.20919146723868    1.99297753542488
H           0.66803506144112    0.47343895595350    2.39280691227579
H          -0.25494338492413    1.46208482247092    1.67941485831441
N          -1.62063831936828   -0.97529027256325    1.41018451168112
H          -1.73094532807450   -0.56839402955819    0.43967203626402
H          -2.51707260753172   -1.24726054792439    1.79630031445002
H          -0.95947939615679   -1.79209671951605    1.34214635137404
