    26
        -50.45942973  Gyration_radius:  2.42425563549 Dipole_moment: 1.896
 S          -1.35483970580546    1.18767284088318    0.56999881120859
O          -0.82474130934981    2.53873617372855    0.71891767190475
O          -1.32426724220452    0.76142845734757   -0.82207137151011
O          -0.72898396557559    0.22959342534672    1.45309301412622
O          -2.87213613589486    1.26605627711589    0.99441171377483
H          -3.15662119836209    2.04887712632847    0.53504907730870
O           1.82768921848601   -1.10526682555985   -1.24853504916331
H           2.37544568169971   -1.78854391350639   -1.63535790420285
O           0.94132598579622    1.31378629711468   -2.09494670241834
H           0.01247594253138    1.15599082395598   -1.81774100706282
H           1.37975555468620    0.44416346329537   -2.00136123974844
O           1.58286122798126    2.45212403214631    0.03390881189025
H           0.62620863923776    2.63935418183196    0.37014221339088
H           1.41896255784853    2.09560078650551   -0.95019188450829
O           1.89500542869995    0.21581617964920    1.10853428957348
H           1.99655042371670   -0.36850250931273    0.32864548182966
H           1.86393888716128    1.57783984614929    0.56026505482712
H           0.95933567111798    0.12173528380990    1.39115760709295
O          -0.63742671973351   -1.83670955721775   -1.20301048950619
H          -1.03285873300744   -0.94864892622800   -1.14232401617563
H           0.88240910943475   -1.46299704214585   -1.24634073080995
H          -0.84173129729070   -2.26692369482773   -0.34075359236090
N          -1.19075032928006   -2.60966954348377    1.34310359440071
H          -1.09994165548167   -1.62657659609329    1.59580302920916
H          -0.56199377545217   -3.13849073671758    1.93445590583232
H          -2.13567226096588   -2.89644587013508    1.56514769109727
