    26
        -50.46116164  Gyration_radius:  2.44775071401 Dipole_moment: 5.244
 S           0.83487023358377    1.89368395087595   -0.47056528384987
O          -0.39615029703233    2.67946737446360   -0.37038536052078
O           1.13463780465725    1.24670876343330    0.80061896700828
O           0.82211256258301    0.97187004639008   -1.57633350914855
O           1.99597355767127    2.92922820748381   -0.73978210143570
H           1.92017309467411    3.52726303512441   -0.00286650540724
O          -0.53249897192283   -2.11164447480391    1.18099291955413
H          -0.66152554446928   -3.05417433136852    1.06924538882534
O           2.03359644266721   -1.28703871860707    0.33640663318223
H           1.35585251857131   -1.70108386346059    0.88876065378661
H           1.86723636296396   -0.33218111650899    0.41281729237367
O           1.18511716385646   -2.19283614556502   -2.08221822866743
H           1.47728967685819   -1.51856577270169   -2.69960003995744
H           1.61744954006829   -1.94975072274755   -1.23369681671594
O          -0.95414610904766   -0.91730735221932   -1.19214016355440
H          -0.33849744540664   -0.15952051343009   -1.33444196490402
H          -0.46597923259129   -1.62529369912463   -1.66697306194000
H          -0.71050278141404   -1.69680154280151    0.30351058184143
O          -0.77530352138855    0.31319584790687    2.40098273132000
H          -1.76686414911290    0.68844999116674    1.28485511231878
H          -0.65759793519938   -0.64332917919960    2.28295724938032
H           0.01865216627615    0.71708570641785    1.98720515896441
N          -2.19657960191319    0.97823704253752    0.33526174244984
H          -1.54895583308145    1.76536431435841   -0.00772319357887
H          -3.15879514909747    1.28832267355371    0.41351159216822
H          -2.09956456273510    0.19065047884564   -0.32039981349241
