    26
        -50.46116160  Gyration_radius:  2.44776450329 Dipole_moment: 5.245
 S           0.89478491966882    1.71441795579434   -0.87503263995081
O           1.33619344696094    1.22977066484726    0.42673604298140
O           1.61500140860338    1.03009561576741   -1.94995743702036
O          -0.53480757820958    1.65935694158898   -1.03561585222741
O           1.31589014484535    3.23369173352620   -0.96223220370510
H           2.26453515502379    3.19372557032301   -0.89265502704791
O          -0.56097124748523   -1.80829846752444    1.59625119847083
H          -1.28043815450697   -2.30852128187736    1.98310908414555
O          -3.11128046863797    0.67577611206028    0.64031539895916
H          -3.11760590194839    1.43625465216054    0.05497035368053
H          -2.37052193264032    0.85276891827467    1.26164715238645
O          -0.82074660939962    0.96284526972386    2.07535088843116
H          -0.65090898751738    0.02793725281709    2.25745902103154
H          -0.09326859319064    1.23857620957652    1.49217269047285
O          -1.40718696235312   -0.79568231614644   -0.74754799370844
H          -0.89012092250094   -1.46404330854174    0.73192454465228
H          -2.27859910980328   -0.55783806812353   -0.36133804540348
H          -1.04028958408686    0.10551491641862   -0.91101810123550
O           2.00954848936114   -1.31145220464747    0.83986824096430
H           1.25496363304538   -1.61346992690608    1.37099963031564
H           1.55144280781650   -1.57244282779163   -0.60657158489431
H           1.92162050888365   -0.33366073786630    0.81151364302595
N           1.10559939770181   -1.46824377827754   -1.58668466524759
H           1.34563737950128   -0.45877378880380   -1.86953881593389
H           0.08265716444228   -1.52593867235961   -1.48746202964007
H           1.45887157646707   -2.14236643399248   -2.25666348350185
