    26
        -50.46116241  Gyration_radius:  2.44673144204 Dipole_moment: 5.279
 S           1.30784420743932    1.66903943453085    0.01823449648431
O           0.53452631334143    2.52922603443834   -0.87874423053232
O           0.52538207756216    1.32532108846106    1.19896768799781
O           1.85260048440921    0.51385316279936   -0.64615653258663
O           2.52754997979366    2.53813552158906    0.51797574775913
H           2.10117691655673    3.29046865544185    0.91635051371833
O          -1.61917395397971   -1.73500848593804    0.71604039410294
H          -1.83697101982263   -2.66626755954462    0.66330468202420
O           1.79305366334353   -2.68107703692589   -0.34722132608353
H           1.57303258434672   -2.27926760638102    0.52224403152007
H           2.54776645035496   -2.17567286528984   -0.65774342269026
O           0.93915390534160   -1.29608618009456    1.83118295843900
H           0.97008204406536   -0.34195908426694    1.64675662394014
H           0.00029551697888   -1.52564360640460    1.78964268789269
O          -0.06434273212285   -1.11328386379768   -1.38883954727515
H          -1.06521594591998   -1.52980344719634   -0.07439084533752
H           0.62596152066250   -0.44977842437444   -1.15101244456802
H           0.45447358460839   -1.94151335169335   -1.28866866794444
O          -2.10264611221725    0.92045862684919    1.09375566175659
H          -1.97316056791274    1.08095898558437   -0.43190006072510
H          -2.14131898187397   -0.04215410428471    1.21470102429818
H          -1.17646498868740    1.16406933317928    1.31158463481711
N          -1.57637283537753    1.16280647423890   -1.43494629239289
H          -0.72007632510042    1.80324021107156   -1.31891150190777
H          -2.24492717690622    1.54247693841771   -2.09602051322161
H          -1.23222859890827    0.23746114959358   -1.72618574947199
