    26
        -50.45064712  Gyration_radius:  2.41533451324 Dipole_moment: 1.309
 S          -1.19457106026188   -1.51028076725011    0.68480208823263
O          -1.19965367483093   -0.92447614986651   -0.64432324403393
O          -0.61038048159365   -2.83187997574840    0.74438841837582
O          -0.64448950619434   -0.58988667863427    1.66729299510305
O          -2.73147917930296   -1.69768574787448    1.05863689959900
H          -2.69463235158721   -2.40138292850277    1.69839214809638
O           2.02573338932673    1.56392822643042   -0.26374920049075
H           2.93419155551418    1.65831511892607   -0.55456600264424
O          -1.64664972838626    1.66264890273853   -1.69563629598471
H          -2.15521898604839    0.85094767839115   -1.57552292261008
H          -1.42514836010858    1.95884742354079   -0.74312835262212
O           1.44179037470364   -2.01586517106529   -0.64115690861010
H           0.68756103691864   -2.40091122723025   -0.14235452817256
H           1.72872892211140   -2.69182534693557   -1.25736556538491
O           0.48512051079824    0.44498646465916   -1.96117688484380
H           0.08097183018943   -0.33523656729693   -1.46509873962803
H          -0.40148864015291    1.07874906556700   -1.99130198628795
H           1.13644703693446    0.90016257139963   -1.30653679757966
O           1.99253584333338   -0.36397089540289    1.43699296886852
H           1.05179961301029   -0.42562866111059    1.70460117532496
H           2.09749129872028   -1.08379472471638    0.79392523455211
H           2.03752056268536    0.86891474260418    0.47109271711753
N          -0.86438448233541    2.08580136766504    0.74358641039515
H           0.09933673519767    2.39986940111894    0.72576730160758
H          -0.86247555200643    1.13144798531624    1.11330623121085
H          -1.36865671663404    2.66820589326860    1.39913284040827
