    26
        -50.47229229  Gyration_radius:  2.48070910439 Dipole_moment: 2.000
 S          -0.51119721388716    1.99433295537510   -0.97719791836564
O           0.36082723084667    1.75738160335807   -2.11142937000509
O          -1.79325381206132    1.32611915106804   -1.07060062711582
O           0.15479549426299    1.70768928675951    0.28959648610730
O          -0.81635472507133    3.54957035458434   -0.98823102390785
H           0.00967287000466    3.89984371980646   -1.30411827228923
O           1.35683062906855   -1.58714952186543    1.76221061074989
H           2.05991002912707   -1.99871586975022    2.26495167817106
O          -0.33222623508523   -2.36622252452476   -0.26717472811679
H           0.29067578907659   -2.28372848528738    0.47742746691075
H           0.07862980365506   -1.87541303124558   -1.00376715792476
O           0.85899921062997   -0.78343237488115   -2.16034545009532
H           0.62932999787725    0.18085457744890   -2.17823085812832
H           0.89972814750750   -1.06093254765469   -3.07690819136276
O           2.29551903608012    0.14521245615156    0.05716712269216
H           2.12213473218281   -0.25184669969681   -0.80750282349856
H           1.60692765814937    0.83602011478558    0.15232806849430
H           1.79455172437584   -0.92852612167173    1.14914863774135
O          -0.53298158754196    0.29559111237902    2.47591430775506
H          -0.24055376506913    0.98150002122972    1.84513647902912
H          -1.63659379684181   -0.29854341845952    1.49485122748197
H           0.16047080171503   -0.38775137296108    2.43933528735477
N          -2.12358164517977   -0.64340062707982    0.61259513603768
H          -3.07976627899554   -0.93149302709282    0.78329925171453
H          -1.52985201745452   -1.43355622019545    0.22170382416997
H          -2.08264207736026    0.15659646940551   -0.08015919360943
