    26
        -50.46415470  Gyration_radius:  2.52027285542 Dipole_moment: 6.952
 S           0.06458099677874    0.20978330420314   -0.53766591252643
O           0.87381612525583   -0.34146767805250    0.54992715325564
O           0.43710460022145   -0.31849534491876   -1.82728026877549
O          -1.41871825928897   -0.12309342986155   -0.25198858905783
O           0.12922060318423    1.68205334246832   -0.48669318298399
O           1.00048097099104   -2.77575224212984   -0.51975322890169
H           1.24457060252545   -2.53670740086938   -1.41868514537762
H           1.06790195226602   -1.94351356994449   -0.01439575676088
O          -1.23394161153978   -1.75213399351140   -3.31373912692046
H          -0.55154660230738   -1.20201418985848   -2.87390771941343
H          -1.80616491443534   -1.14264099184086   -3.78156624119119
O          -1.46388471587496    1.88273431039060    1.67660903772255
H          -2.19752634277245    1.27619472711772    1.55030066005983
H          -1.00481740297546    1.89626837497543    0.81549339195844
O           0.69082345905588    0.86408056995769    2.87585828091216
H           1.47701184744523    1.83583719237413    2.08012208191310
H          -0.20841957970314    1.23511177330603    2.73548356842861
H           0.76460454648509    0.16668173789663    2.18647081358435
O          -1.64422837654406   -2.57171531436994   -0.78280449018932
H          -0.72801553732702   -2.87849950475832   -0.59024091157602
H          -1.56353770759561   -1.13100265816578   -0.42564794367409
H          -1.68389633397643   -2.50437924038679   -1.75857622457138
N           1.88077853721164    2.43313203605057    1.24070007764760
H           1.20476166058391    2.17475722342332    0.43469607748975
H           2.82243522537455    2.13482928097184    1.00832622768328
H           1.84660629696520    3.42995167553178    1.42895738126827
