    26
        -50.45023492  Gyration_radius:  2.51125249481 Dipole_moment: 0.859
 S           1.88088615304294    0.79290734818886    0.12471963586556
O           1.93249422971571   -0.46298218047456   -0.63003435243857
O           1.33404064858746    1.86644018890728   -0.67502845696577
O           1.23971473688683    0.61794033444523    1.40889116059335
O           3.38456514135752    1.18415639811224    0.42299920046668
H           3.63838124514048    1.52562789403097   -0.42715395505373
O          -2.01598317190048   -0.04998173793798   -1.28907074817882
H          -2.66502241834703    0.08667701748930   -1.98103853199320
O          -0.93269227983775    1.94867937451711    2.18695899067177
H          -0.64969879368457    2.70606423774434    2.70131544344651
H          -0.11867193371151    1.44373022515179    1.97879467233587
O           0.05028309682047   -3.24805418407711   -0.53169721951556
H          -0.30348390319962   -2.65782653788336    0.22161031191140
H           0.97729925621786   -3.39781113794515   -0.33256587607353
O           0.07645725120212   -1.26287837820638   -2.05670452277636
H           0.01376196503374   -2.18679599675210   -1.55448165621816
H          -0.77740447020493   -0.74949491426348   -1.77955301694837
H           0.87777636533951   -0.82666459775912   -1.54055520937455
O          -1.27701430776408    2.25318231433475   -0.47768309814594
H          -1.35456817634051    2.24035329876140    0.49731726642230
H          -0.31111689609058    2.23279483707882   -0.64503055447680
H          -1.75352051210570    0.87894390632594   -0.96659518379161
N          -0.74130008963013   -1.46145757837129    1.18743205846127
H           0.04206341552510   -0.81582895455516    1.29414629167648
H          -1.05287927839492   -1.71316564737246    2.11685396189255
H          -1.49436727365638   -0.94455550949506    0.74615339819937
