    26
        -50.46281174  Gyration_radius:  2.46865810021 Dipole_moment: 1.918
 S          -1.38244955922014    0.49057394434075   -1.55420686874012
O          -0.98432056682540    1.35704207667183   -0.45293090939895
O          -0.23638581231433   -0.20681133088157   -2.12461196806943
O          -2.46397544251325   -0.40385280981894   -1.20189561707652
O          -1.94732930398064    1.44227344254383   -2.68638172557777
H          -1.27820399480132    2.11032616865850   -2.80861123003785
O           1.19275599783357   -0.00792222764327    2.21008230394320
H           2.05565450441964    0.36750818719774    2.01878893980135
O           1.56798961922582    1.52804910249291   -1.30568239623938
H           1.09726175788768    0.85351892627488   -1.83242926527709
H           0.87437824719839    1.83303161963328   -0.70291271709566
O           3.07128926125582   -0.25985299917180   -0.00994390315720
H           3.88284044806723   -0.40126141639916   -0.49775923373262
H           2.60231363129404    0.47977274923181   -0.46663156661010
O           0.71011734049999   -1.64182353596903   -0.08358701423350
H           1.66207660778701   -1.43168963143956   -0.10526420454800
H           1.03025165380625   -0.62775125410269    1.48219785301661
H           0.34922756473990   -1.21298268681974   -0.88718645400855
O          -1.34892829238632    0.85637683724231    2.14573676405323
H          -1.31125982177321    1.25065443625276    1.25059468270958
H          -1.66620668690083   -0.56093095274854    1.66749271774414
H          -0.41323890875310    0.74309500138312    2.40450047794822
N          -1.75744269042235   -1.45855225420041    1.06263674341512
H          -2.17857062685391   -1.12324092570203    0.14554690107021
H          -2.31961274096343   -2.18011965126558    1.50006202391140
H          -0.80823216628697   -1.79543079576372    0.83239566621636
