    26
        -50.46281224  Gyration_radius:  2.46842429599 Dipole_moment: 1.928
 S           1.09151586358133   -0.94493875022017   -1.57450165591789
O          -0.16599411291854   -0.22252571929557   -1.71093134037034
O           2.02007898762384   -0.23833500702644   -0.70067046749766
O           0.90538430744689   -2.32851811206661   -1.19341489067236
O           1.74935672887785   -0.96860775270275   -3.01455399626605
H           1.74969764694466   -0.06022144676077   -3.30403987246062
O          -1.88928617540018    0.98399745710421    1.32758092522621
H          -1.71466135385456    1.92816807247148    1.33932473732200
O           0.93555095300114    2.14017059825995   -1.02106412999691
H           0.17339450596469    1.65106522586807   -1.36361609785233
H           1.58371843917330    1.42556411531772   -0.86837167140410
O           0.53676477311505    2.59132072960525    1.58117190230022
H           0.64926034569014    2.53764680286024    0.60125339075897
H           1.15800999559811    3.25408192990541    1.88360473767744
O           0.72175743599582   -0.13770799140008    1.62943443806536
H           1.27913569128197   -0.23159531348688    0.82936627479675
H           0.80941075194723    0.80185991218290    1.87564772927864
H          -1.02706211723712    0.57464521249762    1.49919187223581
O          -2.47965907886096   -0.85713619212947   -0.53583466222763
H          -2.55022033104643   -0.09091503943534    0.06679382056188
H          -1.76862105550637   -0.61293151146963   -1.16261997926829
H          -1.61081839053438   -1.78478925113950    0.31482254744155
N          -0.76338029370778   -2.26610520164384    0.79427742747216
H          -0.07755012700686   -2.45397014634247    0.00369296525498
H          -1.01362951888618   -3.11295894789666    1.29250792708867
H          -0.30215385126617   -1.57726366304870    1.41094805845018
