    26
        -50.46415471  Gyration_radius:  2.5198598201 Dipole_moment: 6.947
 S          -0.12648610497329    0.24676178871408    0.51100574057097
O           1.39886526590561    0.25740949227246    0.25444284907767
O          -0.54736859224985    1.64302480680056    0.29285376300897
O          -0.75363798643580   -0.60451515604942   -0.50060837541147
O          -0.38570071546841   -0.20830000624701    1.85515360458625
O           0.99475855524291    1.98426304475586   -1.88988875149870
H           0.52771181287757    1.98143755195490   -1.03299755309138
H           1.85175903758907    1.59498768646702   -1.69987318797468
O           1.55590595372855   -1.00804697149565    3.48234638038265
H           1.95400652000819   -0.22692823260243    3.86868143453135
H           0.76814737450806   -0.69639386301594    2.98827950954179
O          -0.30381584144857   -2.85901627803678    0.84141130792930
H          -0.61746409866532   -2.58683611918797    1.70881791789834
H          -0.56194001244760   -2.13136238581415    0.24440219189920
O           2.20514454999771   -1.98516610505020    1.06002053970936
H           1.78235353046276   -0.65796736688830    0.54086461185040
H           2.20665321416545   -1.79988381360842    2.02128618674044
H           1.39580335790181   -2.52670540654554    0.91083198774199
O          -0.81750756065643    0.33861073699064   -2.95148299777982
H          -1.83552326616180    1.16984431820942   -2.26602510572350
H          -0.03994250303059    0.93268410878981   -2.85964463045858
H          -0.73360238075976   -0.27387501918695   -2.18687193763677
N          -2.39170630715358    1.73870734299008   -1.49726214322521
H          -1.69025098765684    1.74806300107314   -0.67175328097927
H          -3.23507525455756    1.24401828533871   -1.22572040281074
H          -2.60108759072784    2.68518455937426   -1.79826964887735
