    26
        -50.47126132  Gyration_radius:  2.42928409385 Dipole_moment: 4.305
 S          -1.64171715110865    0.68136441473133   -0.70139692416844
O          -1.79491745445278    2.01901124010960   -0.14816509317381
O          -0.48618472510326    0.60722761845659   -1.58928641108782
O          -1.62500874823321   -0.35433922950602    0.30690923252373
O          -2.91740617447280    0.42597477880340   -1.59635323333035
H          -3.00193862475259    1.25163437399197   -2.06126998526757
O           1.80192571805780   -1.36102136299882    1.06834153247363
H           2.47164553221111   -2.00482502853298    1.30040087969409
O           1.82375638732266    1.00581435765014   -0.30853761356945
H           1.97051327916111    0.14568850265907    0.12864537580247
H           1.06378086400384    0.86758194929713   -0.91067540367911
O           0.24964757048247   -1.63733733085551   -2.81102838583462
H          -0.08644283839826   -0.78849285427119   -2.45726467133737
H           1.10304084886044   -1.44395752761517   -3.20269924881521
O          -0.10341427056048   -2.50663878341719   -0.25783140673942
H          -0.79910028022590   -1.85470823101532   -0.05261712709108
H           0.04090703547331   -2.42302024610014   -1.21911953216012
H           1.10159461921839   -1.85985887956361    0.54699218894891
O          -0.16702255133458   -0.19053501423252    2.58409009549955
H           0.60420635641589   -0.68215382669092    2.24403015784463
H           0.10096711435139    1.29454196737567    2.10271489396427
H          -0.87631232488832   -0.38367789966492    1.94407097229125
N           0.26202250654589    2.13272303651262    1.46082677251751
H          -0.60963449691790    2.23272677081385    0.87073571717109
H           1.03902529636169    1.84332901062359    0.78903988428513
H           0.47606650198268    2.98294819344195    1.96944733323829
