    26
        -50.45023533  Gyration_radius:  2.51054872245 Dipole_moment: 0.830
 S          -0.20122365218115    1.88197682974129    0.77307315682332
O          -1.05758672581501    1.23813085257653    1.74445183645942
O           1.19049498710774    1.44291011241593    0.91358458673730
O          -0.65969797704218    1.77224617222481   -0.59389519780080
O          -0.21085064252174    3.42363482944923    1.12864069008060
H          -0.17415022242372    3.37441010508566    2.07733931973162
O          -0.12008366233625   -2.33926571532002    0.49541438391512
H          -0.20364637053553   -3.17531223207541    0.95673438776942
O          -2.73834724721321    0.29248606833476   -1.35864953708680
H          -3.50673019727577    0.86258426590931   -1.41182256014669
H          -1.98142005532378    0.87794855478260   -1.14592776612851
O           3.10541881178713   -0.66029574215338   -0.86588726874021
H           2.22384189509307   -0.59937612927498   -1.37581669755103
H           3.44380052519289    0.23697480093034   -0.82236778968986
O           1.83279116527289   -0.91867731568363    1.27425019657093
H           1.50597612529141    0.07673460860492    1.24344924766995
H           1.03113054596927   -1.50938877030947    0.99513914198361
H           2.47892299908882   -0.92586559850540    0.44220018674156
O          -2.23922030319377   -0.99834402672744    0.96417542225073
H          -0.98391989453393   -1.83303401104611    0.67843702749690
H          -1.88181406165002   -0.18794873230652    1.38474102990107
H          -2.57010072265412   -0.69490078740906    0.09509854973790
N           0.70307108661944   -0.43843247949021   -1.84306604408813
H           0.31873048884491    0.41568852652862   -1.43744495237396
H           0.16315787773489   -1.21294631888086   -1.47204665545027
H           0.53145522670501   -0.40193788740266   -2.83980473481431
