    26
        -50.46281242  Gyration_radius:  2.4684635762 Dipole_moment: 1.928
 S          -1.49479513446631    1.51560497165747   -0.18050731149777
O          -0.44256919900354    1.45840618065296    0.82507468462009
O          -0.98533391221233    1.17985731876453   -1.50447720008106
O          -2.66206592251363    0.74198953415736    0.18423902803207
O          -1.96826894871996    3.02509800690648   -0.24426651554389
H          -1.17018926296881    3.53271603202007   -0.36427449371851
O           1.74454178590444   -1.51748299962312    0.97857016356575
H           2.57076733300506   -1.22304885031249    0.58777059700418
O           1.52513435159477    1.78658675770233   -0.98951097467179
H           1.25571460183213    1.74297003771057   -0.06059445676943
H           0.67704665648348    1.64806152136160   -1.45399405751110
O           2.51106043192885   -0.59626016454005   -1.68508591789535
H           2.26024280857388    0.32092956272115   -1.41753309188203
H           2.98153899457643   -0.51162321611162   -2.51459511344161
O          -0.08498209904754   -1.31513244618975   -1.20781612549788
H           1.11592075917251   -1.52797468643944    0.24024520730078
H          -0.48502723858339   -0.44084547631784   -1.39578722525685
H           0.80498883807693   -1.26295588822689   -1.60333680777452
O          -0.09703086075900   -0.47751076407266    2.63352570310970
H          -0.20170804514594    0.37411764853272    2.16255391033699
H          -1.09724677545679   -1.24525457334815    1.76771856626282
H           0.74127106923807   -0.84605673680977    2.29199504221692
N          -1.73616627996461   -1.56003097065568    0.94778714661402
H          -2.26338133117009   -0.68126277815994    0.66395710210723
H          -2.36221163424492   -2.31775244468472    1.19667244809059
H          -1.13725096611874   -1.80314558668644    0.14166969228999
