    26
        -50.46061517  Gyration_radius:  2.54378564175 Dipole_moment: 5.977
 S          -0.46515166254123    0.13840197420057   -0.11521112307841
O           0.38789055864919   -1.07083372715968   -0.16073801668727
O           0.05433371464272    0.99630572278340    1.06753348174854
O          -0.22865646844527    0.94952631443246   -1.30321935842308
O          -1.84849331189167   -0.19873733128662    0.10241022478513
O          -1.01863164300956   -2.39532577536661    1.69223160704971
H          -1.90657227250761   -2.24581072936681    1.35461043653259
H          -0.42661540345194   -2.07234298506169    0.98921020297831
O          -3.20406500973438    0.56144440015074    2.26178065767727
H          -3.50415791777183    1.46075665981903    2.12400285918130
H          -2.82390512928410    0.26604069076364    1.40826602485524
O           2.09134661798463    1.90593512883474   -0.56183201793510
H           1.99666930037724    2.05207353759556    0.38384110978799
H           1.17160511002859    1.74408001820289   -0.87935403725621
O          -0.76537506001643   -0.17070459708393    3.13674454339565
H          -1.69912292618118    0.12153254401735    3.11780840004965
H          -0.78875484209178   -1.10361112723874    2.82022288542024
H          -0.23612539095404    0.54151176914326    1.94971164582340
O           2.53368126513870   -0.50600417697148   -1.25657091179912
H           1.68995658985762   -0.85374377427800   -0.73505975573786
H           2.11514730137057   -0.40899769804361   -2.26559446881495
H           2.59472950196887    0.46133705034944   -0.94368132038981
N           1.26403109752155   -0.11925337813634   -3.39071533408954
H           0.51141559480330    0.32329481479613   -2.85035567072666
H           0.88900876471005   -0.92199042477785   -3.87837821780644
H           1.61581163084432    0.54511507967837   -4.06766383653958
