    26
        -50.46281230  Gyration_radius:  2.46842682141 Dipole_moment: 1.925
 S           1.31199835983032   -0.65939386479528   -1.55165596791333
O           1.59327930196468   -1.40558115581119   -0.33128487648721
O          -0.11065600919695   -0.37766734747977   -1.68755492472088
O           2.13361281299373    0.52405579138642   -1.68741069053158
O           1.69626055043409   -1.60473326573980   -2.76229068236739
H           1.06431304709541   -2.31803358371633   -2.73328554110948
O          -1.94602482837406    1.05872224559760    1.18111143545612
H          -2.44843019592758    0.31925921391697    1.53168655204391
O          -1.21568152335097   -1.48830779761157    2.40994747867248
H          -1.17495844682316   -1.88891977384687    1.50796161900772
H          -1.17879766851085   -2.21915293469638    3.02727610761062
O          -0.82670835137177   -2.41016570917343   -0.06665213572248
H          -1.08866828657928   -1.71820670688879   -0.69118027546570
H           0.14267517747348   -2.29546197486163   -0.03084438887195
O          -1.29740863996965    1.97700197708972   -1.25756787003103
H          -0.98753966324694    1.12205105035053   -1.61962764639205
H          -1.81435245130129    1.73514050934164   -0.46414119678420
H           0.03473889721319    2.34799029488522   -0.60395551711086
O           0.75549234350005    0.22939293843191    1.60449160296074
H           1.16503569354400   -0.36508091013891    0.94212877865143
H          -1.02165943005386    0.83913973398989    1.37545951850173
H           0.20911561398811   -0.36254216361537    2.15420753364554
N           1.02118849440081    2.29758136029709   -0.15229291535240
H           0.94892232517912    1.76834644665197    0.73219697780766
H           1.44525234818170    3.20826899976887   -0.01502681112237
H           1.58900050891016    1.68629663664853   -0.81169616438734
