    26
        -50.46415482  Gyration_radius:  2.51978104356 Dipole_moment: 6.946
 S          -0.17256803234068    0.39880253775822    0.38875619809851
O          -0.22864022274238    0.14897984150404   -1.05210641449329
O          -1.44442679092451   -0.02772091903390    1.00075094370140
O           0.88808947254654   -0.54604930606865    1.00113953656772
O           0.16331047410570    1.76657629577859    0.70056663925820
O          -0.90910921911505   -2.65888091370656    0.77726716390681
H           0.00491040336155   -2.78977151906755    1.04096473619611
H          -1.10565458066975   -1.73460309045836    1.02120506357177
O           1.81927532671272    1.75604545192295   -1.60722041317046
H           1.55473269455072    2.52632551612410   -1.09582129556683
H           1.04820269055870    1.15863414868298   -1.57369653182939
O           2.38198910188400    2.41956998120988    2.00777761034121
H           2.21690869508712    2.29838345862003    2.94370636044969
H           1.51849131571119    2.29340794691621    1.56026494715934
O          -1.30668461048407   -2.12394397019734   -1.80639024933328
H          -1.12105602594701   -2.61402886699832   -0.97492679156855
H          -2.48851298727108   -1.34590368479587   -1.36617553465058
H          -0.71237200389057   -1.34229087942334   -1.75316720367630
O           3.10062067141508    0.44355741885746    0.32677021557983
H           1.82341415353069   -0.20300038824532    0.72872484699415
H           2.84640181091174    0.88586207554078   -0.51608911401621
H           3.14016178651371    1.16699246667155    0.98491469464139
N          -3.14631073038839   -0.63636959619866   -0.82931804208757
H          -3.38837843899178    0.14900829775946   -1.42459130325077
H          -2.50576732564166   -0.30119454602090   -0.02258215202132
H          -3.97702763848695   -1.08838774713180   -0.46072392080101
