    26
        -50.46281201  Gyration_radius:  2.46837833735 Dipole_moment: 1.921
 S          -1.19040309221684    1.61873849733755   -0.72541016101904
O          -0.22670088354345    1.68009863028179    0.36520693224736
O          -0.66995932402084    0.85738298876121   -1.85430432368366
O          -2.49534481594601    1.16382798035406   -0.29619908641351
O          -1.38582940896260    3.10658331445041   -1.23005491904995
H          -0.50463756657409    3.43686775521046   -1.38288801642956
O           1.38796809698777   -1.43602812659135    1.51669241484895
H           2.27525250230824   -1.39253471416633    1.15209415426571
O           1.87324882930521    1.18773228964917   -1.25380540316721
H           1.54434678258513    1.44230280808940   -0.37949599411210
H           1.04403086176167    1.05996325510599   -1.75387094592384
O           2.46383871567942   -1.41683747942492   -1.19989205317347
H           2.99180449025285   -1.63529232718502   -1.96809847438869
H           2.36309107299439   -0.43422746087324   -1.20721579166058
O          -0.24229815818732   -1.56737520969345   -0.82467822246589
H           0.81272518038291   -1.55195831720940    0.74452308183309
H          -0.46955329733690   -0.72743257355946   -1.27483965317588
H           0.66378090268931   -1.76513120893078   -1.12617646944141
O          -0.33897676707460    0.28595818156497    2.64062719389141
H          -1.40412470507378   -0.52801162682210    1.90509487749577
H           0.44079661290905   -0.28562151955844    2.49765482885908
H          -0.26366544612415    0.98085213259963    1.95528540846001
N          -2.03837553573001   -0.95448512216612    1.13321119013553
H          -2.38406578299838   -0.11739547799608    0.57589813288564
H          -2.80215763047898   -1.50864104835493    1.50411147224024
H          -1.44479163358725   -1.49933560084048    0.48652982694662
