    26
        -50.44895811  Gyration_radius:  2.52204661194 Dipole_moment: 2.907
 S          -2.14580982226805   -0.49176891862209    0.84971113868882
O          -1.45785985422996    0.80688499482511    0.84673900911349
O          -2.72243916061819   -0.78058864022697   -0.44834655466282
O          -1.29585623076109   -1.51992458662447    1.39178884561239
O          -3.38268460206422   -0.33287519836819    1.83056908852560
H          -4.06933163097229   -0.06583449648209    1.22872625478313
O           2.23572193999391   -0.83417646843691    0.87176689175015
H           2.64249398570722   -1.37708634978019    1.54911863687741
O          -0.76085373801151   -0.74389257626898   -2.15709287792170
H          -1.52302316851122   -0.69300208071943   -1.52822097751407
H          -1.11958723188715   -1.11410320269851   -2.96596042524371
O           0.91969853348835    2.84045558852961    0.20750502939541
H          -0.02830957430106    2.95450991928628    0.09438264905587
H           1.21077286307852    2.22600022125683   -0.54287973432146
O           0.52368051665613   -2.32857915714892   -0.33157995711591
H          -0.18248482902453   -2.22241814823890    0.34090807849315
H           0.18285641311866   -1.86231602058948   -1.11600760092037
H           1.60736726957185   -1.44832025972672    0.37179957263350
O           0.76576019290143    0.99334484579345    1.88965680096841
H           0.96581119742315    1.84440575899135    1.30464354352810
H          -0.22134122517603    0.80713390227510    1.56268177573875
H           1.35763219103579    0.24272203801508    1.51000624691811
N           1.56997340717500    1.00029766718362   -1.54219240157743
H           2.04570003836936    1.24252377604718   -2.40158039391198
H           0.71923378322058    0.49888473377117   -1.78733000289886
H           2.16287872603512    0.35772266805434   -1.02881263598880
