    26
        -50.45091325  Gyration_radius:  2.45436617257 Dipole_moment: 4.366
 S          -0.18013932024713    1.81781309004003   -0.36103588871486
O           1.17502158291543    2.29940268382606   -0.30869732007022
O          -0.48676291093236    0.90934914820194   -1.43969675640592
O          -0.62793064127667    1.24439711683191    0.92234164830820
O          -1.09065188711245    3.10186797484891   -0.58802284718456
H          -0.52465150608334    3.80129110980723   -0.27915288233099
O           0.70460975697615   -2.13309926813233   -0.15557747024539
H           1.09020873785122   -2.83361057437494    0.37291193382991
O          -0.24641812120123   -1.51750099707341   -2.72990966277203
H          -0.06371090214585   -0.58127510662073   -2.55888906837373
H           0.21195181403011   -1.99063968664842   -2.02322866144580
O          -2.56894463420340   -0.78475081348691   -1.71738183047793
H          -2.30910332258375    0.14199188763551   -1.82960029749080
H          -1.88378004812718   -1.26689092584204   -2.24679362201463
O          -1.51019823015182   -1.04748162739319    0.53769403253019
H          -1.18959480688380   -0.06763189846887    0.74247618016714
H          -2.05474948654909   -0.98018226817490   -0.37696023176780
H          -0.65473794159424   -1.55293514947949    0.30044817543270
O           2.17509854833621   -0.09785774613429    0.32439218852393
H           2.06244955960023   -0.00167269155189    1.29678935834674
H           1.31587867558963   -1.33171624413470   -0.04780829161310
H           1.92100861837632    0.77150178359269   -0.03598371280455
N           1.34393492221106    0.38516778156743    2.87473304746953
H           0.55199372991013    0.81466617191866    2.39902260590270
H           1.86100028108765    1.12491010307448    3.33308347822283
H           0.97821752211608   -0.22511385356380    3.59484588469466
