    26
        -50.47126130  Gyration_radius:  2.4292617627 Dipole_moment: 4.309
 S          -0.31172329647700    1.59570872063560   -1.00501091045019
O          -0.15947751193395    0.33821264519675   -1.72924927745059
O          -1.71644247063845    1.92617643367105   -0.81405912021980
O           0.45069738047959    1.61601855141047    0.22298561683076
O           0.28463995850669    2.72704733549453   -1.93115685451714
H          -0.39715051585110    2.82512533734814   -2.58724000551057
O           0.86474680055100   -1.76549284909547    1.53973884679834
H           1.35796047453661   -2.45369001349628    1.98696419881401
O          -1.10127688571504   -1.75704849974265   -0.36625501077181
H          -0.38912683765422   -1.92093415381436    0.28065265966458
H          -0.74259240546403   -1.09018331567875   -0.98744770619085
O           2.21227518568445   -0.73009294980815   -2.28363352176241
H           1.34743578358500   -0.28207621814512   -2.18462730439011
H           2.02151676120496   -1.60684386957559   -2.62123083359038
O           2.49340654298683   -0.13815669317503    0.35623685195333
H           1.54640548238663   -1.17797539132526    1.09111851283694
H           2.62175442420347   -0.39177097893478   -0.57713021154513
H           1.89272382738178    0.62951277213752    0.32555959920081
O          -0.40242427956573    0.46464832697322    2.52189405714101
H           0.01252146976846    1.07210758030314    1.88248207602030
H          -1.75362295313794    0.26480788163796    1.72014170608786
H           0.06676951610314   -0.38067835105263    2.38985710252819
N          -2.43092957876201    0.09748850425265    0.91152367278800
H          -2.29291266947475    0.89605778447130    0.23234040517641
H          -3.39485756374929    0.01908743472967    1.21497134418361
H          -2.08031665895685   -0.77705603442774    0.41057406639358
