    26
        -50.46415463  Gyration_radius:  2.52033934579 Dipole_moment: 6.964
 S          -0.25921504731290    0.08400874956804    0.51426406915741
O           0.75728066583546    0.07858925162136    1.58240262126238
O          -1.60578154152675    0.02512729968060    1.02812795508484
O          -0.04406753489964    1.42943911323921   -0.21817304764148
O           0.03038825758715   -0.99913731487380   -0.42615177796234
O           2.70684519944929    1.07749425005172    0.01343333535337
H           2.02063187774416    0.85364261832706    0.67021605245505
H           2.32398933166267    1.79055552460656   -0.50332180886031
O          -3.38255022820001    1.94822251037946    0.57895061634511
H          -3.22106527085053    2.64913647027292    1.21181194096908
H          -2.80173247549166    1.20344073999738    0.84328460492370
O          -2.39933655952457   -0.96805247628591   -1.51244836554721
H          -2.92819654285005   -0.96472822213770   -0.70921827691128
H          -1.48495008029197   -1.12092643577840   -1.20727929551648
O           2.55137207695826   -1.35769961979797   -1.06713340925894
H           1.57204715754634   -1.28699517134855   -1.12308826447917
H           2.84078981185567   -0.43554714135192   -0.88940771893148
H           2.50843615585256   -1.86640807932391    0.32407760495584
O          -2.03742846526906    1.66341006779320   -1.73515279645725
H          -2.24764887475340    0.71466417306137   -1.89745862276406
H          -2.69226522700965    1.95252231377754   -1.06745416939128
H          -0.82337806488726    1.56458514442748   -0.88215262808895
N           2.24215224058977   -2.01258541753592    1.38801424044395
H           3.05543604560638   -1.97481265720029    1.99419049901660
H           1.72929135259431   -2.87908254425241    1.51424431818272
H           1.58895573958151   -1.16886314691709    1.57542235364536
