    26
        -50.44895805  Gyration_radius:  2.52224292233 Dipole_moment: 2.913
 S          -0.82977330411253   -1.66778292101113    1.44929084157266
O           0.55854505838011   -1.20369707164241    1.31935726888712
O          -1.61587172323101   -0.74712042449106    2.24644563375667
O          -1.38189354984352   -1.99797628056224    0.16107998455333
O          -0.76907313498652   -3.00771327997766    2.29670095681203
H          -0.88254215967812   -2.67831681672458    3.18201492778169
O           0.11095165139297   -0.07337966550237   -2.53624995517672
H          -0.08503947830718   -0.61988762166276   -3.29908596661848
O           2.92793413414825    0.60136293570418    0.16191792644677
H           2.23989879000050    1.30090181982380   -0.08877098778785
H           2.73272464386705    0.36221422322928    1.07251656212990
O          -1.49295038756573    1.56235728927961    1.05551475644092
H          -1.49070843049885    0.70684610316697    1.55273718326884
H          -2.15684448807765    2.10646014422626    1.48350885005748
O           1.64989379572077   -1.27763709781491   -0.88757596099216
H           1.02467236301429   -0.82267958234042   -1.56580991915698
H           2.32750569041223   -0.53616075741330   -0.57531120533312
H           1.10810519820226   -1.38448276830278    0.01294456682710
O          -2.08073976738807    0.14009989348961   -1.20838921530952
H          -1.96551429501257    0.79802303484825   -0.49932945378766
H          -0.76977041943915    0.04799361279029   -2.05499132073692
H          -1.99938630416090   -0.72517262129045   -0.75361044762434
N           0.94205915860291    2.15839026977445   -0.54618739920675
H           1.06381468926690    3.16044347299825   -0.61408599014213
H           0.17157431099486    1.98055730719446    0.09414198541054
H           0.66242795828855    1.81635681221311   -1.45877366209536
