    26
        -50.46133245  Gyration_radius:  2.45135495306 Dipole_moment: 4.977
 S          -0.07690448883881    2.11246442704189   -0.04410227536942
O           0.69867558298738    1.34657782072693    0.90840688919523
O           0.01559185665901    1.59844960727651   -1.39523296824873
O          -1.47010580497415    2.26375456159021    0.37687794212140
O           0.54312920265641    3.56676057067062   -0.06192535320624
H           0.05192416996127    3.99911145139157   -0.75358814439094
O           0.59430705342358   -2.29342861051020    0.69737623128895
H           0.77061278782924   -3.15772243628022    0.32369127872093
O           2.41878683126409   -0.37364519304331   -0.30428532714189
H           2.13740375239479   -1.12009157983745    0.24204591329157
H           1.90938291165339    0.38276928036229    0.03551718089636
O           1.37752563470487   -1.16385206955353   -2.67215851617780
H           1.29933374632782   -0.36087300660035   -3.19118818678626
H           1.88908829881894   -0.89500402792533   -1.87494198073221
O          -0.21785624785193   -0.51085048511516    2.59704788326572
H           0.23981061221168    0.25472598073310    2.19284207089294
H          -1.51462060040169   -0.36146912763305    1.76856102856130
H           0.20669655224244   -1.28787760889335    2.19875743551688
O          -0.77885579632712   -0.89289927384842   -1.16731917548884
H          -0.18938132348897   -1.25914834539844   -1.86501419793568
H           0.09163164711674   -1.79130642776035    0.01539748440888
H          -0.55075660599392    0.06439627409217   -1.22417427047314
N          -2.22954840152007   -0.11685145567130    0.99731210547774
H          -2.03732450805785    0.91600398227011    0.76720516550097
H          -3.19018047797307   -0.26956534707747    1.28329421801677
H          -1.98836638481844   -0.65042898100091    0.14959755879619
