    26
        -50.46133269  Gyration_radius:  2.451636512 Dipole_moment: 4.976
 S           1.85024971315203   -0.04099089921541   -1.02363443988127
O           0.78668384532431   -0.45790298760137   -1.91438455665199
O           1.44859595140021    1.01138249872461   -0.11452890717383
O           2.43636640668032   -1.18188568562873   -0.31940538613542
O           2.99852837495687    0.56101252213322   -1.92846719766012
H           3.16914814379211   -0.13979015163893   -2.54998474567176
O          -1.81914481054589    0.75700101524433    1.48809388381218
H          -2.77548194495232    0.76571837660074    1.54312574284964
O          -2.46261986488160    0.28762816266220   -2.06267204744001
H          -1.97391579340038    0.04444212846726   -2.85151218398354
H          -1.97290512583399    1.05878405308060   -1.69523596280468
O          -0.92517350533038    2.13334270456228   -0.81953853897065
H          -1.28583004044708    2.05396225967647    0.07400099885033
H          -0.01420152217136    1.79916504830271   -0.74521835725930
O           0.73568880858293    0.72888592298270    2.44558483726302
H           0.75086418761571   -0.77632223707380    2.09351486740642
H           1.14243749019286    1.02556440628851    1.60566593138282
H          -0.20260691070841    0.96298293827930    2.35908131629444
O          -1.14865466441658   -1.16891294925878   -0.29045615823115
H          -0.37733384830706   -0.95607201523870   -0.86627493974288
H          -1.58283394867756    0.05188347504186    0.84229332567471
H          -1.88983338334654   -0.88131035215903   -0.87034002728272
N           0.76361946948606   -1.71693691665785    1.56342677572719
H           1.53243824975641   -1.59887810549656    0.82072631721740
H          -0.12331811858354   -1.81140565622129    1.04774922686253
H           0.93923286067645   -2.51134754585026    2.16839022555038
