    26
        -50.46400442  Gyration_radius:  2.43630431229 Dipole_moment: 6.304
 S          -1.11439380386073    1.44697815516536    1.31983405358325
O           0.17839926134408    1.23024432358392    1.92532049185021
O          -1.06536267234012    1.36071257077671   -0.14167966180158
O          -2.16499295769606    0.63545864290975    1.89050409004366
O          -1.50732384963152    2.96284494237741    1.60305332628403
H          -1.59444321341315    2.95698935072680    2.55016860305438
O           1.45126870687069   -1.95694543154481    0.43344947468899
H           1.74429035764125   -2.75616234038437    0.87259508621337
O          -1.90485168712855   -0.71037189135965   -1.43104540637629
H          -1.65942547952584    0.10418616344257   -0.91036173313242
H          -2.71832055986681   -0.49213785781990   -1.88743816330500
O           1.25553128808432    1.45905418398419   -1.39209686627607
H           0.39215541710551    1.63522379503483   -0.95510410698430
H           1.01505216285583    0.10477703737407   -1.82758329605826
O          -1.04548752894538   -1.60210736095458    1.10443347791933
H          -1.52519480837794   -1.63324943288617    0.26641743522538
H           0.54409090385943   -1.76293557330112    0.79831242631960
H          -1.40835070187106   -0.81464589778114    1.56189241131217
O           2.48897054861033    0.65877861549869    0.76975546712910
H           2.37428679636366   -0.30083577835554    0.72659555255175
H           1.87967089143743    1.30367007932733   -0.63172088625748
H           1.73741239975927    0.96059022170767    1.32145363948185
N           0.73797416668177   -0.96735531946431   -1.98703258978668
H          -0.29969896123187   -1.00094990655070   -1.94976948135189
H           1.11182885583024   -1.48804104372920   -1.16939865359415
H           1.09691446744541   -1.33377022777842   -2.86055470073216
