    26
        -50.46400440  Gyration_radius:  2.43635538146 Dipole_moment: 6.308
 S          -2.22807422574987   -0.33050609764501    0.06668642528810
O          -1.45605973630924    0.89594651716705    0.28049824805038
O          -1.71621247088064   -1.11562389302294   -1.03173417560410
O          -2.41731965517575   -1.08848029384959    1.28217411230344
O          -3.66615107087430    0.19159505441236   -0.37094308170114
H          -4.14944065092315   -0.62545720229691   -0.42892680951668
O           1.94719489897445   -1.48155693653368   -0.36334340493571
H           2.47209412759657   -2.27959527466323   -0.29182960226028
O           0.19659729749646    1.75344237745770   -1.58871169698714
H           1.27745378110623    1.52035373474535   -0.66140653682332
H          -0.56132546942836    1.55947281374804   -0.99261911707943
O           0.25560025287172    1.14171713790607    2.19494364388233
H          -0.46570149976137    1.04301699421091    1.51306459224440
H          -0.08912164119854    1.74725463109242    2.85230582027222
O           0.14414753887663   -1.59722219454709    1.51966165446318
H           1.18771090053068   -1.59785556492805    0.27180560968892
H           0.32334431486320   -0.82479446961393    2.07139831937428
H          -0.82657567245645   -1.57845113495074    1.38370748120541
O           0.38164013164242   -0.65958819505012   -2.57819388150657
H           1.04935451247556   -1.06309193317530   -2.00611659344093
H          -0.46816199405725   -0.90663571632533   -2.15737425126118
H           0.26237687479435    0.94165642617699   -2.16187074944049
N           2.00301891736153    1.18459496646424    0.12092909757231
H           2.18688942081799    0.17942352504797   -0.06674211976550
H           1.49949412070859    1.26133850539258    1.02663136751747
H           2.85722699669856    1.72904622278040    0.11600564846037
