    26
        -50.46400424  Gyration_radius:  2.43694577335 Dipole_moment: 6.303
 S          -0.01641039484551    2.16168214068885    0.64148797873255
O           0.30283213318537    2.14368146957443   -0.76667692932224
O          -0.90966333847409    1.06516169656971    1.02306310456365
O           1.14387388271400    2.25753434125016    1.49744710602920
O          -0.88144154548807    3.47171214685405    0.90047521403044
H          -0.24753071917027    4.15211531520471    0.70089145168509
O           1.47178765090119   -1.35301020021331   -1.45915892550348
H           2.29538316319744   -1.65127041797808   -1.84677202981787
O          -2.20444942221395   -0.28598581757513   -0.83635716358926
H          -1.44553537032197   -1.44775339556803   -0.44213162814832
H          -1.89799984710031    0.34026843385811   -0.14257683748878
O          -0.06801210193724   -1.03855993050252    2.25701537400529
H          -0.38104838315401   -1.02215356966168    3.16226876300228
H          -0.37540527329915   -0.18202859550555    1.84867449902148
O          -0.42374231742023    0.40290608976372   -2.62238612394050
H          -0.15782837846363    1.17018131253014   -2.07378799888775
H           0.27799592334853   -0.24560089456727   -2.47049449981447
H          -1.70490656707557   -0.00286845680130   -1.65008319365869
O           2.08905801471007   -0.06208504096391    0.72243217905627
H           1.72745796867960   -0.75629857919217   -0.70239174875862
H           1.86835503423722    0.87389697654188    0.91364160802988
H           1.65086549673405   -0.55884609130768    1.42571378503115
N          -0.70880819715750   -2.21753520329705   -0.10077107839981
H          -0.47621179908609   -1.97212542778714    0.88156259519662
H           0.14170802229996   -2.08246673293125   -0.68184905696683
H          -1.07032363480004   -3.16055154898386   -0.17923643408683
