    26
        -50.45363104  Gyration_radius:  2.4977769421 Dipole_moment: 2.033
 S          -1.13376761386987    1.43279681685362   -0.11579095942459
O           0.31194450355766    1.60233357796806   -0.08451543354632
O          -1.55890507707563    0.92091688486630   -1.41850169181095
O          -1.63490732975839    0.66417635910368    0.99749877017186
O          -1.76462566103679    2.87385501794183   -0.00038417911754
H          -1.52516541121740    3.24593277427020   -0.84189495079189
O          -0.71195143793789   -1.79762370114247    0.65004364451314
H          -1.23935265538220   -1.02250739387789    0.93429234003250
O           2.20832411281732    0.40003640549764   -1.54929345877414
H           2.63849935452665   -0.02696423511650   -0.80130137531884
H           1.51919526903517    0.96558171493442   -1.14856148585266
O           1.03893119757552   -1.44192818244864   -2.98794588166136
H           0.98958772562201   -1.11470743522443   -3.88748848001125
H           1.54404735387245   -0.75902957359265   -2.46614587127542
O           1.46854187570650   -0.45757220497488    1.22202560185278
H           1.23153073468434   -0.34073761925382    2.16452432736417
H           0.22287473485571   -1.51185897461478    0.83616039139278
H           1.11662735677110    0.35192511746817    0.80565598293891
O          -1.18761811323418   -1.52636152407819   -1.76633954672381
H          -0.30365391259088   -1.57196833682400   -2.29034511983105
H          -0.97207933124601   -1.78653579773676   -0.74325180753331
H          -1.42603276491480   -0.52247838123445   -1.69498906363362
N           0.02092054787646    0.25263534226971    3.42661017570033
H          -0.40825789133884   -0.42617654111195    4.04356468248896
H          -0.67971553755472    0.52214543898921    2.73795043702896
H           0.23500797030452    1.07411443116945    3.97842294183473
