    26
        -50.46983301  Gyration_radius:  2.43238827268 Dipole_moment: 4.334
 S           1.56698105278932    0.17307967305808   -1.32195739198718
O           0.60366735959432   -0.75194797313090   -1.86233488308942
O           0.92417755276016    1.41512587827241   -0.86192001246140
O           2.43564758521037   -0.37166186392163   -0.30041205236673
O           2.51468426920167    0.59916848306043   -2.51742848954339
H           3.30861666760481    0.85385512213563   -2.05905992277122
O          -0.77316357074934   -1.38221835802595    1.36737325737896
H          -0.15261824458201   -2.07113059561781    1.05137923391425
O           1.17927034819015   -2.71340745167269    0.07765443488891
H           0.83438767841711   -2.81810819773627   -0.81331439095120
H           1.76430499583430   -1.93516398799103    0.01827828607770
O          -1.76328315577446    1.37759097420857    2.12864179154319
H          -0.80359041799857    1.40571636790074    2.26596786814262
H          -2.01459367912606    0.46064017254216    2.28389140384300
O           0.90448252605372    0.80432700900808    1.70178400490545
H           1.74285347030198    0.36421827516133    1.86625221070710
H           0.97183145201194    1.11205668646584    0.77260864905913
H          -0.19337387201519   -0.62240604151948    1.55307843642612
O          -1.91551806604422   -1.00696000393495   -1.01838299134257
H          -1.66867923669513   -1.28669553018512   -0.10574451840955
H          -1.95713399339238    0.50238588237033   -0.82231992306510
H          -1.07309186712087   -1.05536026040922   -1.51226892297361
N          -1.69953654134251    1.52126638255657   -0.55227357006930
H          -2.23585533741366    2.21159881492023   -1.06439837345224
H          -0.67119561710240    1.60066283744714   -0.76193814490795
H          -1.82927135861241    1.61336769504345    0.48684402050611
