    26
        -50.46983298  Gyration_radius:  2.43235616129 Dipole_moment: 4.330
 S          -0.78555360167561    1.06860899379378   -1.57281703508236
O           0.66524594830991    1.16452733070035   -1.34182133304366
O          -1.21350068446233   -0.30254620456980   -1.68361788306399
O          -1.51819720558649    1.86530381501568   -0.61188646386835
O          -1.04030642672369    1.74425497767637   -2.98262847044506
H          -1.12781907957622    2.66211556881383   -2.74818454837220
O          -0.63300368314843   -0.88236477736466    1.78829297476844
H          -1.57150850399215   -0.72430421549952    1.55640522518017
O           2.34506865885888   -0.36212717031275    1.97660368317313
H           1.68988577733101   -0.92558329411640    2.40243275383733
H           1.93662297673957    0.51651214163407    1.93398928309950
O          -2.90287994682354   -0.11088103625910    0.56372315718616
H          -2.96276621527037   -0.69488638595668   -0.19718812959693
H          -2.51194910648618    0.70846832247294    0.20695805505944
O           0.52344078558829    1.58497507276464    1.25638410691993
H          -0.21966796652171   -0.00880184813146    1.67009289521615
H           0.62134734325868    1.52127938337557    0.28227081620282
H          -0.23059229477944    2.16775244371089    1.38044836200340
O          -0.12054700305409   -2.35847139084925   -0.37868408280770
H           1.23944241158325   -1.70155400338111   -0.57180659272652
H          -0.34503143836374   -2.01561195503404    0.51806919219373
H          -0.63377424486135   -1.78545424380373   -0.98207606702843
N           2.04289410086602   -0.97391875766466   -0.62075938786771
H           2.82010123249985   -1.28391561017277   -1.19198978014255
H           2.33822405819767   -0.76487868097341    0.36622113174179
H           1.59482410807231   -0.10849846585161   -1.01843188253261
