    26
        -50.46061526  Gyration_radius:  2.54389421225 Dipole_moment: 5.981
 S           0.45465314703118   -0.01464640856817    0.20561438215180
O          -0.16625080714316    0.09819312328818   -1.13363856956421
O           1.71749300432077   -0.70483223792826    0.14615827276180
O           0.52346902944690    1.30286859221596    0.82574976197784
O          -0.53864777229730   -0.82056310509734    1.08243338077609
O           2.16037418385899   -3.02733900174927    1.36591725455637
H           2.37055625975276   -2.84708503560508    2.28306246991245
H           2.12953577289560   -2.15714881638502    0.91636549025570
O           0.70212654249106   -2.29040629425985   -1.97490435414717
H           1.62357664869138   -2.22765944348514   -1.70687153080265
H           0.34223353150396   -1.39506861710367   -1.84171116203571
O          -2.01605739026398    1.48730840903745    1.42987151484504
H          -1.03029305527666    1.47147437564938    1.40031556421404
H          -2.26282417135966    0.59616679138595    1.69363781393975
O          -0.31210022926038   -3.20289802988339    0.31421621341427
H           0.52703385446492   -3.42959133639628    0.76364346832927
H          -0.50276372360690   -1.81046917041840    0.78624989402363
H          -0.06135104817199   -3.06552893400344   -0.62872573835465
O          -1.87762398694747    1.88525772059056   -1.08386059119086
H          -1.21836695998611    1.07758954736829   -1.21631939213925
H          -2.16735215961353    1.76791051354642   -0.11461090201822
H          -1.16272627064862    2.71518912227128   -1.02518657646833
N          -0.03164520214397    3.54982973660511   -0.71374534055992
H           0.43205448387459    2.88062219609838   -0.08808146396924
H          -0.22246283260923    4.40035014263339   -0.20027186718676
H           0.58735912100470    3.76047617019134   -1.48530799272705
