    26
        -50.44961620  Gyration_radius:  2.49732017536 Dipole_moment: 2.631
 S          -0.17603542957067    1.98765573484559    0.39533024250357
O           0.29695832217890    1.80890745427236   -0.98260661600025
O          -1.49379310685423    1.39375542287434    0.56114206429331
O           0.79275357972573    1.56039773808068    1.36499750802457
O          -0.37697866392023    3.54647067275324    0.57913631708892
H          -1.06099216665116    3.71868310999908   -0.05866516068308
O           1.58792033056650   -1.84412086456583    0.24592006602237
H           2.38159543290503   -2.35578228046910    0.41024585220482
O          -1.85399103525765   -0.63227620265925    2.25120370295230
H          -1.77058028584957    0.12290385973049    1.62990323372911
H          -2.32216807989478   -0.29383228122773    3.01575157879486
O           0.24747207502813   -0.67797844203530   -3.17169452348525
H          -0.40014551658464   -0.89214259701717   -2.41700464251532
H          -0.05386000922411    0.15239669421108   -3.54689684180918
O           1.93567593791115    0.01296847173865   -1.45033325541564
H           1.37393433152676   -0.33961029761418   -2.26370716438068
H           1.34658317364679    0.83141096514306   -1.16400328005239
H           1.82978279456470   -0.71603718787729   -0.72398559486108
O           0.83196903140421   -0.84554349908846    2.47617707722238
H           0.94762677827920    0.09515697065521    2.23606136714379
H          -0.13875734696093   -0.96004349707928    2.51798074340353
H           1.29873795008978   -1.48218901216889    1.14973253960440
N          -1.19004330830548   -1.02974051547235   -1.01999097829538
H          -1.29913306556801   -0.11360461227276   -0.58640135057817
H          -0.62663017771671   -1.59256250719333   -0.39187798626506
H          -2.10790155546566   -1.45524330756435   -1.05641490864032
