    26
        -50.44961610  Gyration_radius:  2.49719894481 Dipole_moment: 2.630
 S          -1.78329715998528    0.68588317359242    0.69783841980110
O          -1.06985426797558    0.00345225216792    1.78395589000092
O          -1.02526675145112    1.83950761299555    0.23827314932171
O          -2.18042188666183   -0.21635466742148   -0.34606393417182
O          -3.10232078383705    1.26631475487222    1.35162333518357
H          -2.73957041945527    1.87878346667114    1.98220044313970
O           0.96215518378920   -1.92574991375799   -1.16081050552598
H           1.08555503575710   -2.78726743852157   -1.56241209140394
O          -0.11448146855869    1.94139070080460   -2.26184416593840
H          -0.44478060285886    1.95333218471109   -1.33770581385680
H          -0.65032948197697    2.57488242334895   -2.74123880874602
O           2.08758773642753   -0.82430631633878    2.35405892573889
H           1.67656125156917   -0.39112985756743    3.10539908619557
H           2.05739928546967   -0.14852469761623    1.59433287100049
O           0.19852228442000   -2.05666211504703    1.25713987707166
H           1.04899858326316   -1.70763161575268    1.76345524794751
H          -0.45885016458993   -1.26002912933951    1.43578141982582
H           0.45940514994438   -2.02647931500211    0.25645783338175
O          -0.77668030990499   -0.66414568857685   -2.54923562090533
H           0.28797030544707   -1.44091213649967   -1.74556684627875
H          -1.45916500548252   -0.58901702738582   -1.85319052880683
H          -0.44215980860718    0.24969665584740   -2.65027039973418
N           1.67895155679041    0.76914579862000    0.32574770959434
H           1.67289128684877    0.18061135790537   -0.50027762064751
H           2.29337713467394    1.54933971115390    0.12921951871790
H           0.73780330694441    1.14586982613722    0.43313261909909
