    26
        -50.45760699  Gyration_radius:  2.49461159733 Dipole_moment: 2.741
 S          -1.01210047570526    0.78224707561184   -0.62448085702770
O          -1.74500034854568    0.20370051041427    0.48501431106387
O           0.18250507828503    1.49578465129798   -0.14012910635578
O          -0.64363218937580   -0.21340394908308   -1.62371277765561
O          -1.90839822269173    1.82425735721699   -1.33932166716436
H          -2.12307692135449    2.44318647252258   -0.58994460143603
O           2.24971106922260   -0.92337981127982    1.78605226045101
H           2.29794723118406   -0.42073958179270    2.60062176472651
O           1.76752022900573   -1.14299335058315   -2.17531153555375
H           0.87893281058394   -0.73029790861469   -2.23348133232606
H           1.59843294617378   -2.03317796439291   -1.84428539750421
O          -0.36963513073160   -2.77417336615102   -0.98570309519949
H          -1.13637967105442   -3.30647921692922   -1.20160590327192
H          -0.59492670449128   -1.85305525828183   -1.24229689405293
O           2.41634331432358    0.45855694028236   -0.31841615478703
H           2.43999616006007   -0.10597934057833    0.55298985245799
H           2.30089575637920   -0.20361840058582   -1.10095880181746
H           1.48503542119140    0.97108933872911   -0.27068577222664
O          -0.19995849426570   -1.69614892075587    1.52299060943254
H          -0.80998140726810   -0.97328615331712    1.26570314696259
H          -0.21136046586105   -2.30526571122583    0.76346052496324
H           1.30701682658338   -1.27007892294851    1.72574426988126
N          -2.10700450067101    2.96147103359147    0.99081817007698
H          -2.73340545122879    3.54290511951643    1.53291407357863
H          -1.15534931755025    3.26793319713019    1.14845162641513
H          -2.17412754219196    2.00094615016663    1.31557328633403
