    26
        -50.45760666  Gyration_radius:  2.49437275305 Dipole_moment: 2.736
 S           0.81093257931143   -1.14315229138827    0.25338077014469
O          -0.49528385351712   -1.75088992432431    0.08903266769714
O           1.15528488267839   -0.32824930586193   -0.92493453830661
O           0.90128078812863   -0.34607071378400    1.47085217405013
O           1.88113096181208   -2.25760118564554    0.36691438907450
H           1.73772754770157   -2.75252570360371   -0.48456828853484
O          -1.53060816684399    2.21116520425010   -1.36428014507803
H          -1.75866542422360    1.99107361419553   -2.26880449093733
O          -1.25564928869067    0.71617663659831    2.59260763122151
H          -0.48141041262486    0.21909019939557    2.24838186500995
H          -1.59278548660712    0.20720279166102    3.33095365743949
O           1.05826255651785    2.28351574411647    1.67963513420594
H           1.23412861932530    1.31976912972928    1.73889721777824
H           0.18704141223853    2.39456937030429    2.07858680167497
O           0.93825525399101    2.13031552047897   -0.84937285165144
H          -0.06341227026236    2.24719316460120   -1.09719561076976
H           1.02359033009513    2.33792417240762    0.15753557210638
H           1.10193708163444    1.08077862319033   -0.91413239839879
O          -2.27799097151744    0.22284921454259    0.10357066212110
H          -2.15432811057857    0.50633631095747    1.02686125564745
H          -1.88128101873326    1.45862210562712   -0.79570966920564
H          -1.70168328403680   -0.56460238273541    0.01041306178884
N           0.97394128953505   -3.08556855274628   -1.92496842857785
H           0.07319078910064   -2.86170495042361   -1.51145847151864
H           0.88618794115922   -3.92344996567810   -2.48587062168835
H           1.23020625437223   -2.31276681587849   -2.52632731530430
