    26
        -50.46183220  Gyration_radius:  2.40575985283 Dipole_moment: 6.561
 S           0.57450323982844    0.91926937350862   -1.69319515852040
O           0.76720874526798    1.26857623756437   -0.29906624480733
O           1.34856027473924   -0.20087184383721   -2.15309494056128
O          -0.85604976448574    0.78417518245546   -1.99719948478558
O           1.07319264286931    2.17740338861748   -2.52502482530497
H           1.37155866342439    1.79665648555768   -3.34555823844261
O          -0.35544774744259   -0.91270864115431    2.27934137886948
H          -0.33109501617403   -1.75534913596170    2.73443175053310
O           2.26032545086178   -0.33674181552787    1.31220273620279
H           1.53444131456833   -0.48787786050937    1.93284330663701
H           1.91385699563931    0.32039097760673    0.68474796256194
O           1.84672382928009   -2.33504001806491   -0.47985220531592
H           1.92928182668999   -1.78769043155232   -1.27488335096951
H           2.19983045583517   -1.76693521470708    0.23588184791621
O          -0.61559724921541   -1.44674650695462   -0.32785275998668
H          -0.49715652372813   -0.78194432058390   -1.01754163189128
H           0.22387079439046   -1.98113427815628   -0.37830863448701
H          -0.45315501292582   -1.11948549388101    1.31893243956209
O          -0.88279681681585    1.70135483021143    1.72784762099670
H          -1.93516761496687    1.14660738094725    0.79835250573058
H          -0.64883165778985    0.92437484130554    2.26111668710492
H          -0.17271535129194    1.75594120709528    1.05232152183619
N          -2.48866008211369    0.65317011030678   -0.00257323932023
H          -3.42877069858755    1.01447960705936   -0.12113873290945
H          -2.48776342566073   -0.35405849899946    0.16102287497253
H          -1.89014728213141    0.80418446760673   -0.88375320563756
