    26
        -50.46183272  Gyration_radius:  2.40573331448 Dipole_moment: 6.568
 S           0.49471790465107   -1.70975886336015    0.93420668906356
O           0.00090485043641   -0.44561398037369    1.44487999747605
O          -0.46947506095420   -2.49316292499996    0.21178962931226
O           1.74142877078423   -1.51107451941680    0.18393857213945
O           0.89497877915980   -2.56261829212444    2.21336670077081
H           0.78100899223955   -3.46366956588386    1.92605590704593
O          -0.87940965434428    2.18440242867675   -0.78459766881034
H          -1.41662787743367    2.53485125282074   -1.49615854069878
O          -2.48794328941646    0.41839679012280    0.76566095399785
H          -2.15956910707638    1.23894791260019    0.37349234559304
H          -1.70175059369737    0.00283817786085    1.15910696596585
O          -2.37455044626136   -1.26651509144239   -1.36123439384308
H          -1.93684536721212   -1.99701356427132   -0.89954231735333
H          -2.67438468594994   -0.67635373985351   -0.63902796879640
O           0.86980634518015    2.05262424558806    1.29858541320530
H           0.53137971723200    1.17987335712713    1.59423567554111
H           1.83339921827617    1.50382541664731    0.27394559595541
H           0.15882752993476    2.41108922675941    0.74292169568165
O           0.01223505514593   -0.20568837684493   -1.58915340009028
H          -0.90028845449317   -0.58339903766167   -1.72142374745438
H          -0.55416600684746    1.30410911119118   -1.09083615101250
H           0.42998581506387   -0.84006944323948   -0.99367398052116
N           2.36134936045094    0.90694126855600   -0.47188826911487
H           1.87239045550454    0.97838839023895   -1.36474708430300
H           2.23061326857477   -0.11153390023498   -0.15109076787337
H           3.34198445105316    1.15018370151882   -0.55881187187537
