    26
        -50.46183275  Gyration_radius:  2.40568150613 Dipole_moment: 6.563
 S          -0.90612251243930    1.71257862497480    0.53512813882895
O          -2.17625573357203    1.31952821326524   -0.01053022252546
O          -0.23407533916491    0.69641443209060    1.32145900749577
O           0.00139939325797    2.26326594913473   -0.47979006967046
O          -1.20159410708815    2.90712289920629    1.53993965569581
H          -1.97602161769461    3.32237686764331    1.17229492574754
O           1.02623230070722   -2.24797600882184   -0.22810201942194
H           0.89220144814608   -3.05785587373569   -0.72193376637076
O          -1.24673991306094   -1.82632785668382    1.43471840997477
H          -0.43989484565115   -2.22831224664107    1.08490481525062
H          -1.02242772354239   -0.88726576459380    1.55063596883495
O          -2.59754433223386   -1.27253065641552   -0.85514987385028
H          -2.29492621705220   -1.65877569431316   -0.00718229135343
H          -2.83393807085692   -0.36157041702467   -0.62574363598949
O          -0.25981505698605   -0.31072736851216   -1.55051042159766
H          -0.42696435592021    0.56257723262829   -1.17504921095459
H           0.54965662281795   -1.53953053893153   -0.72346687565247
H          -1.14794162779775   -0.75862795509160   -1.49064048129323
O           2.21082651708508   -0.32344922450135    1.29226368103800
H           1.35141484025374    0.07740579233042    1.54580571260873
H           1.98063167698352   -1.21832022175964    0.99404831394874
H           2.34880324615283    0.42469516890124   -0.01229034872924
N           2.18706825042817    0.97119040182718   -0.94297214507907
H           3.00225841371839    1.49062569877402   -1.24959697824577
H           1.35434320684642    1.62107218071500   -0.73890573868036
H           1.85942552666300    0.32241635553484   -1.65933456001063
