    26
        -50.46117193  Gyration_radius:  2.41694195832 Dipole_moment: 3.331
 S           0.90246328677278    0.00613063866134    0.49432107596626
O           1.72480764035021   -0.23845032049745   -0.67483474290234
O           0.07071913142963    1.21035188598702    0.29014024868343
O           0.05984853115668   -1.13210650509903    0.83181172602728
O           1.79998090137618    0.29429440531201    1.71946584758889
H           2.38776136724160    1.03310191410763    1.37234341734184
O          -1.64446199484224    0.53963924977989   -1.43308812505047
H          -0.97010968104103    0.99122290131349   -0.80935660873694
O          -1.86732378154519    1.14496333989826    2.16054169328428
H          -1.45601702812478    0.89325114945004    2.98869814090423
H          -1.13586434096184    1.30350582489331    1.53289592764955
O          -0.63868081148908   -3.08045379959412   -0.90117458407734
H          -1.55843368151903   -3.20796189246684   -0.65610160866183
H          -0.23509212576342   -2.56074107908728   -0.18169252121380
O          -2.54670529119693   -0.84149216367732    0.47190681057553
H          -1.62931682702867   -1.11255137936607    0.70004743218866
H          -2.73224923124294   -0.14659668369709    1.13199490619525
H          -2.18699479079164   -0.04712613551825   -0.75895022581740
O          -0.03169111736345   -1.02923770717036   -2.47303161307622
H          -0.26428367185953   -1.91694783788817   -2.11132267285507
H          -1.01447943803571   -0.14129554743628   -2.00672603524589
H           0.75989929721015   -0.75360171755322   -1.95371913988525
N           3.00890219771071    2.08208838683468    0.29859685467991
H           2.38382937767494    2.86742791704503    0.17119718625686
H           2.84981030691240    1.42770014038568   -0.46286031376441
H           3.96368178496499    2.41488502542151    0.25889689400817
