    26
        -50.44929198  Gyration_radius:  2.51698006974 Dipole_moment: 2.089
 S           1.36629143901612    1.46886829303946   -1.21666304491996
O           2.03064833575483    1.50851426786566    0.06943225236984
O           1.92476806276842    0.49737371891123   -2.13151678749215
O          -0.08091609809683    1.33513815292902   -1.07175719786921
O           1.57724122718754    2.89645267519394   -1.87978854879883
H           2.52437032382578    2.94342523831920   -1.95729083199210
O          -0.25532215402192   -0.32482099852180    2.51452394905224
H           0.06308310700481   -0.02615182443447    3.36789692871810
O          -2.97838052770890    0.40469624469949   -0.26664104626221
H          -2.55875815375774   -0.51065634902339   -0.14541283498834
H          -2.66736605184569    0.71506457965894   -1.12218106237082
O           0.96349871712636   -1.77984520407329   -1.33208312235670
H           1.26652336189830   -0.91309062334588   -1.70023693535247
H           1.44125895356584   -2.44964909647526   -1.82528635207044
O           1.81525461326846   -0.89499544516860    1.11202522807900
H           2.04136266746130    0.00593766099602    0.79126551432153
H           0.56964782110659   -0.59686713992519    1.99366786023936
H           1.54729195498382   -1.38159653333621    0.31158408083770
O          -1.23408227807136    1.55729920780493    1.09673966552511
H          -2.09925118903999    1.14209637750418    0.65194677344267
H          -0.84797997200475    0.82142178386592    1.70501059271668
H          -0.62619354223265    1.57861742208836    0.24044870521932
N          -1.62454832232401   -1.79870548850580    0.14133673649328
H          -2.05448472634813   -2.70615568576601    0.01800110126004
H          -1.29652355849140   -1.73659919187990    1.09862542681435
H          -0.80743401102885   -1.75577205241378   -0.46364705061896
