    26
        -50.44929203  Gyration_radius:  2.51700878629 Dipole_moment: 2.090
 S           0.51153022477249    1.37275526618595   -1.83274912849955
O           1.48784309955689    1.85015798583978   -0.87572520244989
O           1.01377149941442    0.33927724317465   -2.71156403193062
O          -0.74086381105632    0.99580013990274   -1.18253829041052
O           0.13446104890322    2.61192140344483   -2.75170599234071
H           0.97018660221632    2.82478336015671   -3.15362309126477
O           0.58650978932396    0.24532982170017    2.46757455442812
H           1.04970249740558    0.79705740518299    3.09993707605732
O          -2.92209996587130   -0.26578253152473    0.70399250277925
H          -2.25912293449047   -1.02408436049720    0.82254191852206
H          -2.96823726118632   -0.11510676887445   -0.24478173811218
O           0.96631196534031   -1.82231545283414   -1.27130279730505
H           1.43822340766402   -2.48343219111399   -1.78156221751695
H           0.90791293244757   -1.02731215607392   -1.85710171923446
O          -1.22502554909962    1.50091440991749    1.18220564266140
H          -0.49781078937079    1.02358732986573    1.73347461134092
H          -0.92248700203922    1.43517140534457    0.17855811934351
H          -2.04047656141288    0.82901197354216    1.13376569768599
O           2.23002646232709   -0.22611810332129    0.55552054861651
H           2.10589323320583    0.59762184826377    0.03423944160870
H           1.26430565983016    0.02399110553695    1.74820585327557
H           1.87828649532640   -0.93380350983589   -0.01435084497701
N          -0.97628137353725   -1.99561445183441    0.97953776755452
H          -0.41127704554283   -1.64192452876961    1.74343279416079
H          -0.41352944509854   -1.93947312298042    0.13355718972397
H          -1.16775317902468   -2.97241351040107    1.16046132628363
