    26
        -50.44930433  Gyration_radius:  2.54971557123 Dipole_moment: 3.579
 S          -0.47155742730548    1.43872787955023    0.72991813215486
O          -0.24090167862006    1.72797986097660   -0.67050184280872
O          -1.32276955113137    0.25984424190785    0.90377209360353
O           0.78729130197502    1.27783388729147    1.47129100907917
O          -1.19914158381328    2.64241466412961    1.38639987060977
H          -2.01438929772955    2.71170521145332    0.82223049676827
O           3.17104060597259   -0.78383412123360   -0.29125015600558
H           3.77352243469421   -0.04122327997243   -0.21742469159128
O          -0.40879253109178   -2.09235492316384    0.97267745931055
H          -0.98031380413067   -2.58257620614183    1.56642092620956
H          -0.81754168573661   -1.16699594029334    0.90497417081372
O          -0.08701516158451   -2.38483621527811   -1.77142117581022
H           0.56070385350941   -3.07973066602430   -1.90242453923130
H          -0.28267934966226   -2.35849870108986   -0.82041615650315
O           1.31977933632902   -0.03702963101076   -1.89112873237872
H           0.77310379055926    0.67682040430343   -1.49863884401371
H           2.47150275419161   -0.50093893951250   -0.97242474555528
H           0.72126298710476   -0.79696763487642   -2.01786129348619
O           1.76565598639055   -0.95000666837545    1.77163957639892
H           1.34450311074497    0.04823770208218    1.73540374331615
H           0.98860798720470   -1.53957401741975    1.52000654994035
H           2.42138429621240   -0.94378038730980    0.94164686958646
N          -3.00816848189754    2.26690535939758   -0.45343682538044
H          -3.31518541347234    1.33935761269069   -0.18761853964595
H          -2.20048039037760    2.14853602278782   -1.05860388598424
H          -3.74942208816332    2.71998449532088   -0.97322947948737
