    26
        -50.47229287  Gyration_radius:  2.48072604367 Dipole_moment: 1.999
 S           0.59080045508890    2.07631252374416   -0.73197247960294
O           0.49397641443579    1.54900370176101    0.62569327592688
O           1.76998945726253    1.58493864597220   -1.41817550219911
O          -0.64145377751665    1.88629764627400   -1.46945654951566
O           0.79314022051028    3.64236340873797   -0.59667729492684
H           1.73116579492863    3.69634061106957   -0.44828338013346
O          -0.11680326048084   -1.99917567478553    1.85675708785291
H           0.12826416558750   -2.63642677595696    2.52779842257778
O          -0.84498231573860   -2.10622853472324   -0.79613539388058
H          -0.63401051768576   -2.25959138962111    0.14255345190969
H          -0.02175258894799   -1.76482378199026   -1.19377288809093
O           1.47782364369685   -0.97215837966265   -1.70387633352616
H           1.57045582053023    0.01324012831667   -1.64586626855592
H           1.85053781033955   -1.22134184167678   -2.55100089924564
O           1.94936687032766   -0.63962157415332    1.03729293867815
H           2.08116153339588   -0.93113982100533    0.12456707472271
H           1.52610737203697    0.24047654621146    0.95526774140683
H           0.72080533196297   -1.51039683129655    1.61042190149759
O          -1.48768062833185    0.39113569094681    2.03248774107299
H          -0.75623996272323    0.95505147388028    1.71471289329894
H          -2.14413084816731    0.23203020401156    0.59158561365282
H          -1.08456572169101   -0.48514448097608    2.16980974274092
N          -2.25368563894201    0.09666236614777   -0.45928869707438
H          -1.80466706257520   -0.83668272215295   -0.69827786292690
H          -1.67327809688787    0.85477252513273   -0.91729714410738
H          -3.22034445039660    0.14410633581330   -0.75886719152592
