    26
        -50.44930435  Gyration_radius:  2.54974791868 Dipole_moment: 3.578
 S           0.73050180211033    1.28198850192416   -0.80494438213406
O           0.88804729076460    1.52565791155730    0.61413667519818
O           1.12733079906280   -0.08082830835656   -1.16524962012620
O          -0.64012252796698    1.55576886938175   -1.25954843055016
O           1.64201767738178    2.25900678816764   -1.59465098140439
H           2.53602965200089    2.04246586555948   -1.21845860594671
O          -3.13109243565648    0.17438062423496    0.95989855376950
H          -3.48034781900235    1.06551014377614    1.02183659865189
O          -0.28910978777934   -2.42300457278781    1.69679550253972
H          -1.07799602920428   -2.90114457256044    1.95884054004642
H          -0.29126125188611   -2.38786321301531    0.72613510119888
O          -0.45541777710799   -2.04410076421306   -1.05040152210755
H          -0.19344444722892   -2.63886399980689   -1.75547436598964
H           0.22126922046091   -1.28919487382943   -1.06656175836742
O          -2.29152797414743   -0.25357076467089   -1.35751101514320
H          -2.73185022007226   -0.11226255221573   -0.40620297340639
H          -1.58750628151051    0.56931176859582   -1.40605630642198
H          -1.69767536087542   -1.06370501374038   -1.28216178665313
O          -0.85665596839895    0.22206114614078    2.13021445074274
H          -0.20924276769716    0.76722501582369    1.63410376765715
H          -2.25598393634345    0.18774053042481    1.47688432858655
H          -0.50613658120296   -0.68831657047754    2.12103452439315
N           3.58337126456578    1.23234651383291   -0.18902064129529
H           2.91852647619332    1.31634868618984    0.57486567531106
H           4.51688791349656    1.40600661164298    0.16211828471091
H           3.53138907004749    0.27703621872298   -0.52062161328498
