    26
        -50.45558064  Gyration_radius:  2.44437434505 Dipole_moment: 2.107
 S          -0.83462520599526    0.81946092999560   -0.78093677537691
O           0.02728038683379    1.87709258336092   -0.30333594533784
O          -0.24485214929466   -0.50946494917249   -0.54036593076529
O          -2.17346637886723    0.85876965546495   -0.19089671673525
O          -1.00855095254790    0.95405987539407   -2.31198530108782
H          -0.04654846327630    1.04981819239940   -2.61395842163648
O          -0.21289311987073   -0.30068875428337    3.02338435058225
H          -0.30189026218159    0.30693518345949    3.76010652829255
O           2.35705761877666   -0.86438973867223   -0.52834061919250
H           1.37890098931131   -0.76607686118588   -0.57373329427107
H           2.52020926402683   -1.78471592376880   -0.31535724430672
O          -1.81293386599587   -2.48298490624885    0.07388550882650
H          -1.13491968267102   -1.83178169517514   -0.24241923716821
H          -2.46712557766086   -2.54927005550385   -0.62456543195610
O           1.58340472308649    0.84007587901238    1.55630278738037
H           2.10108420026592    0.24501505833437    0.99020532466948
H           1.03015116856287    1.35040278677626    0.92706026846485
H           0.51217823725850    0.08437332103578    2.44010248625730
O          -2.36542293156559   -0.65227179283681    1.75368687627046
H          -2.23348011029980   -1.52170963542483    1.23138783641993
H          -1.48736164017200   -0.51328460474530    2.30149027682754
H          -2.34693975048041    0.06906373462452    0.97045911914769
N           1.54431069721487    1.26284242480440   -2.58808350319377
H           2.06660297390020    0.45062304088686   -2.27654900786677
H           1.49192696296432    1.90074562796021   -1.79923642385978
H           2.05790284866534    1.70736063350852   -3.33830753039237
