    26
        -50.45558068  Gyration_radius:  2.44461295908 Dipole_moment: 2.106
 S          -0.00599374414580    1.16971375047383   -0.78248829464603
O          -0.22522520012140   -0.28508876468886   -0.69727633903758
O          -0.25116535853731    1.81849146244019    0.48588285124178
O           1.33890756216153    1.41744122295873   -1.30393048191833
O          -1.00688760568872    1.70594252109421   -1.83252094223936
H          -1.88472019346237    1.61506023416668   -1.33550359960618
O           2.35616303985560   -0.93703044026226    1.68913234876991
H           2.94875503345405   -0.51631524693802    2.31497655630856
O          -1.99186961745160   -1.30202731193646    0.95794275695021
H          -1.94410119143813   -2.25606821471890    0.87770234220279
H          -1.35708429962385   -0.94252677872676    0.29727113544865
O           1.31268598499184   -1.86911228028623   -2.06009340915368
H           1.25181802613809   -1.59789559224680   -2.97824473588847
H           0.61253111996627   -1.36145199968935   -1.57423995895283
O           2.90135084893557   -0.40360822160107   -0.71642172917506
H           2.43648631953151   -1.12983402066458   -1.26685359458796
H           2.31159603462872    0.45063951974491   -0.95318189618646
H           2.70072704896451   -0.63186951977192    0.28272126911540
O           0.04640302732878   -0.00024729898202    2.37194324857517
H          -0.71575117768530   -0.55925578174458    2.15020925918991
H           1.43082352407001   -0.63193548882775    1.94425604304111
H          -0.03753896799665    0.77118255926984    1.77164577011335
N          -2.95280043908702    1.39112872267487   -0.15836660120957
H          -2.34358450252942    1.81308119067574    0.53642280618899
H          -3.07776434670052    0.42038958180416    0.10923065653968
H          -3.85376093556633    1.85119621576955   -0.13021545108479
