    26
        -50.45064738  Gyration_radius:  2.41932942288 Dipole_moment: 1.258
 S           1.87373087839316   -0.81267668703307   -0.10907394248742
O           2.76458933723145   -0.30361633170521   -1.12786917841582
O           1.59899426175289    0.14173379585574    0.95237030473512
O           0.64577726819403   -1.39034235764255   -0.62996916866891
O           2.64603610838407   -2.02979766106455    0.56904045511685
H           3.55462298173403   -1.76104533486800    0.47934053462036
O          -1.87718939684049    1.74557756630669    0.12051581070066
H          -2.36362631510896    2.42942285576596   -0.34266673644511
O           0.78234558574184    0.98526901346088   -2.23492255851548
H           1.56975340072764    0.51089006796878   -1.88922919122546
H           0.83156051017016    0.92542881659282   -3.19041361831601
O          -1.85967317601035   -2.18400099487064    0.52297009743018
H          -1.04947437717799   -2.63672403425637    0.26054922651638
H          -1.56570841314498   -1.55945656510055    1.27457621821476
O           0.59952489590597    2.43191320657850    0.04944578445385
H          -0.91912875019617    2.06699071982899    0.16856359593579
H           1.05274797663076    1.69670334617605    0.51234165102855
H           0.74386263407926    2.23540919099484   -0.89004778795055
O          -1.61796677651059   -0.42167743589834   -1.19619696758957
H          -0.62161545861490   -0.60625787310161   -1.20756925989083
H          -1.90383236618465   -1.20247296261129   -0.50402258544704
H          -1.74595889770211    0.46772879912150   -0.69158355180603
N          -0.91556821093674   -0.39620203350530    2.15635910806683
H           0.02610773677297   -0.25912855086267    1.77987135106710
H          -0.82868791577255   -0.54460415768689    3.15321804734904
H          -1.42122351150479    0.47093560149975    2.01440236150537
