    26
        -50.45064712  Gyration_radius:  2.41918078367 Dipole_moment: 1.254
 S           1.50943181781415   -0.97804309638168   -0.97410477193554
O           1.00065518399282   -1.55551491309830    0.25907910272957
O           1.15897475664203   -1.73548338452668   -2.15494346241838
O           1.19373088501524    0.43801824000603   -1.06295410456927
O           3.09818755956692   -1.04087601194437   -0.87854216780904
H           3.28562466982688   -1.88660564965176   -1.27291846902782
O          -2.25248112777837    0.44122787962884    1.14665370518728
H          -3.20001849116376    0.53521623986322    1.03639076410850
O          -1.22174716254500   -0.66500412433140   -2.15318874776781
H          -0.33996467730887   -1.09020308283527   -2.23255409356111
H          -1.49672452785610   -0.44978816755964   -3.04602562100886
O           1.04295058069398    2.59494780886002    0.82273231074889
H           1.69824292230296    2.27903605231460    0.18943314501115
H           0.95598374382661    1.83239254192727    1.49530303894143
O          -1.63611110177483   -1.88133836350921    0.23264068673478
H          -2.03108377546606   -0.50675432987269    0.87094563025132
H          -1.75001418968844   -1.66534871901022   -0.70678667480946
H          -0.66355607509373   -1.92039660979680    0.34555788495360
O          -0.87191046971711    1.78824518971839   -0.51967099740495
H          -0.25076683681696    1.11490678001977   -0.95268306152209
H          -1.46197907403532    1.26085303366664    0.14059946758419
H          -0.13415285569634    2.30203075719897    0.08241527335233
N           0.65674164406045    0.45033017821148    2.23928029428807
H          -0.33060340284450    0.38088906352676    2.45853445867933
H           1.17667302066733    0.23828967728874    3.08072296647271
H           0.86391696338285   -0.28102698970603    1.55408343278569
