    26
        -50.45234214  Gyration_radius:  2.54429045513 Dipole_moment: 2.494
 S          -1.48914428590711    0.44359291451234    0.39791530330263
O          -1.17567652343821   -0.91946220369473    0.88584661142975
O          -0.55929369858093    1.40082877615428    0.97769096613470
O          -1.50487060698879    0.48380765090846   -1.04883479669724
O          -2.92003053307336    0.77137904515893    0.89503930080066
H          -2.80585674877355    0.73571625026803    1.88253332961111
O           2.60043296970659   -0.84433541659517    0.38567473706456
H           2.76274487620241   -0.77095206840505    1.32716176568009
O           0.35861293752329    1.02396315933861   -2.72378942500386
H          -0.02583968302275    1.49529627909510   -3.46462569926832
H          -0.38964418819594    0.87145791756876   -2.08411582719361
O           0.88623755876339   -1.59120906936290   -2.77110575219160
H           1.83249236538911   -1.66650521230144   -2.91387342758061
H           0.66801831721074   -0.63365851354774   -2.84377483162348
O           0.55226034992047   -2.18559856138296   -0.29225483520632
H           1.40900096029298   -1.71795806694145    0.03417996624652
H          -0.27239156687780   -1.64874755801594    0.19960724248846
H           0.53411724125253   -2.01132504585963   -1.29401789003581
O           1.73340070899487    1.48007276882916   -0.33391176687850
H           2.34489901206348    0.07916722522208    0.07870253623837
H           1.44111312608116    1.48424500631237   -1.25666066703314
H           0.91024546818051    1.55952431358172    0.19831175015706
N          -1.94393180831514    0.57919397899695    3.30276341404410
H          -2.07567780759568    0.92912108595959    4.24308135799398
H          -1.15777634440068    1.05769191822165    2.87152282746088
H          -1.71344209641110   -0.40530658402060    3.34693383005895
