    26
        -50.45591208  Gyration_radius:  2.49164151691 Dipole_moment: 3.166
 S           0.09481482293941   -1.22207731276056    0.04008908472071
O           0.34438247078042   -0.04787860119852    0.90804274644787
O          -0.99337869720779   -2.01318258690142    0.55765691979838
O          -0.07817039229686   -0.78873310402617   -1.33944575219567
O           1.40311672324016   -2.06093591217974    0.05698401754401
H           1.43327856835851   -2.41844944957347    0.99141839892738
O          -0.60012080526232    3.14680753406924   -0.82842803458435
H          -0.60073872047768    3.70703593830918   -1.60575462730414
O           1.87980526164977    0.55908620136743   -2.36269243868964
H           1.20958003811267   -0.10418904278411   -2.05983308924410
H           1.58187803118777    0.86864401445983   -3.22045579472884
O          -2.50116824948671    0.13855791314040    1.12838005543932
H          -2.15899942538399   -0.75614290640978    0.95120593091406
H          -1.78120907503443    0.58697972420763    1.58182715272581
O           1.46777687440636    1.84463509121613   -0.18984845436438
H           1.76578015074471    1.42632651847682   -1.06842680521573
H           0.66317720980889    2.46088288430841   -0.41329289390335
H           1.02136019656952    1.01931821912800    0.35307703679180
O          -2.03462277566454    1.07219133868354   -1.34844291961067
H          -1.39505499462444    0.35426601933538   -1.50842939578428
H          -2.46281554700308    0.82350546716016   -0.50221249964470
H          -1.23052402583595    2.38226363616069   -1.02287336982815
N           0.90994231308500   -2.73291683031595    2.52137607415878
H          -0.05321736131823   -2.68369633007950    2.19899682716564
H           1.06947482331175   -1.96203725600217    3.15668228921093
H           1.04565258537759   -3.60026116784204    3.02439957118745
