    26
        -50.46154479  Gyration_radius:  2.43330481147 Dipole_moment: 1.386
 S           0.38313441653702   -1.00697302858890    1.84979612858236
O          -1.06957926707586   -1.10136934525334    1.73115247651880
O           1.05376886898558   -2.05471653559306    1.10910906400588
O           0.85935880378186    0.32545108132378    1.52715715392708
O           0.73163968361461   -1.23637117565286    3.37325495539111
H           0.64866267722126   -2.17853824646159    3.47930249043774
O          -0.79246755109922   -0.48512565420113   -1.80668543821468
H          -0.91645187288306   -1.42861400749657   -1.54589004975832
O          -0.91460598805152   -2.79970599617248   -0.52034987107111
H          -0.11964027876303   -2.65538080574927    0.03175897296387
H          -1.65185647631794   -2.72263919477369    0.09114074412965
O          -0.46397742366976    2.46498292215768    0.61815623238987
H          -0.00647985353508    2.60105316622237   -0.26191408069787
H           0.13488273694042    1.89474525032148    1.13631609223192
O           1.72888148750820   -0.20216225047942   -0.90367934225038
H           1.51669111500529    0.06041677856289    0.01678055767776
H           2.05072316990650   -1.10460413498036   -0.82158293571470
H           0.15546199628020   -0.30703427158222   -1.61774288791671
O          -2.01003223476231    0.59600119364653    0.10648557329852
H          -1.44142263260606    1.49087254009260    0.33197762221735
H          -1.57918208754735    0.20109665669230   -0.77072422422644
H          -1.73919931161283   -0.07129954394243    0.82926574309003
N           0.73143171449294    2.48256653011683   -1.76206145410733
H           1.24244911380599    3.29760845874342   -2.07518602197729
H           0.07730829767595    2.22185916339520   -2.48993731487990
H           1.39050089624893    1.71788044956844   -1.65590018601857
