    26
        -50.46154472  Gyration_radius:  2.43322138951 Dipole_moment: 1.386
 S           0.32194407441311    1.87010393950103    0.99059755874421
O          -0.82062699239317    2.15978190175094    0.12811524202354
O          -0.08436268021687    1.24997338115626    2.23420586065818
O           1.34969939201929    1.12864599510017    0.28330201080366
O           0.97061639612016    3.25959122151997    1.36980366097476
H           0.38517256400793    3.60172065226252    2.03762729022356
O          -1.49461202831967   -1.36947876755493   -0.11470953444488
H          -2.05805223586092   -0.87005397181366    0.52299584372949
O          -2.51904776704946    0.41354166368544    1.55820773417760
H          -1.66673834662357    0.68945595568273    1.95206809695001
H          -2.78876994844961    1.15974054283454    1.01618977020433
O           1.36185147437707    0.11562702305214   -2.19236098458071
H           1.46240476529080   -0.85958664922510   -1.98902864137801
H           1.63267843246572    0.57975246100924   -1.37776120743158
O           0.80494455747124   -1.24817366431748    1.28170419976282
H          -0.63995296751746   -1.48138980391454    0.35765686302674
H           1.13326707114439   -0.39348213876231    0.93106349930903
H           0.52379561853624   -1.04130684174451    2.17774931582693
O          -1.05006704165399    0.48264228721920   -1.75310022475025
H          -0.02537022793714    0.33365522557718   -2.07378894173189
H          -1.28506808845029   -0.35720073173493   -1.16116071118436
H          -1.00150183035171    1.24661296054353   -1.07844566613043
N           1.39324742205994   -2.42767267206972   -1.40189836526736
H           0.50897438325914   -2.87458761163080   -1.61168145280739
H           1.44884265777530   -2.31905897219372   -0.39416981240531
H           2.13673135592551   -3.04885341601995   -1.69318140428061
