    26
        -50.46154473  Gyration_radius:  2.43329402824 Dipole_moment: 1.388
 S           1.83566952667427    0.38576378461777   -1.03139858894453
O           1.32568986980542   -0.79606761961524   -1.72167630758594
O           1.25513911224216    1.60616746050082   -1.55079976039127
O           1.71561991464093    0.25558420749431    0.40903023861798
O           3.38430466961625    0.45798309753701   -1.33431563677183
H           3.42011420958952    0.79919495095732   -2.22206238985505
O          -1.97329838256883   -0.06422283742029   -0.47575708619946
H          -1.80021831707396    0.20451723514658   -1.40925314554471
O           0.58369578466214   -1.66550053002861    1.88671696471262
H           1.21719134008892   -1.00205370951125    1.55386767882752
H          -0.13327189871951   -1.14084230792961    2.34833850931280
O          -0.87759159128704    0.61019380887035   -2.79349383361117
H          -0.48508371503369   -0.19374593269104   -3.14424543893044
H          -0.12514306471565    1.10697680894470   -2.41309166535263
O          -0.41134086070016   -2.02828373561910   -0.35461568245009
H          -1.15716361515072   -1.28374954513854   -0.37563928081204
H           0.32583473565712   -1.64746626383296   -0.94852377955555
H           0.00023244330706   -1.99825023949573    0.64764960361244
O          -0.41205218132748    1.77984848794399    0.71362230174822
H          -1.52751269476568    0.62910255771382    0.05963309823911
H           0.42817758181578    1.27471828575419    0.70452252572908
H          -0.28827733705402    2.45254258384872    0.03768146400869
N          -1.38271999725139   -0.12202440964147    2.80628825132857
H          -2.27104256969765   -0.40592532684357    2.41138446257452
H          -1.13787139299932    0.77317508847816    2.39508190041525
H          -1.50908157839601    0.01236409003012    3.80105559705848
