    26
        -50.45591209  Gyration_radius:  2.49158186305 Dipole_moment: 3.166
 S           0.12626485554438    0.99981446442297   -0.69918606946788
O           0.80647173036156    0.32798589839556    0.43235779585547
O           0.94601644257663    0.95247607860250   -1.88396498535205
O          -1.21095083698491    0.44873883602022   -0.86928231075077
O          -0.07963225528204    2.47830736444431   -0.26643725412726
H           0.85158718017406    2.84512069235605   -0.25568499927702
O          -0.94778233595927   -2.85872499152588    1.37046296899140
H          -1.75149312450739   -3.34961591834057    1.54706412627250
O          -2.76800513710661    0.58474009133877    1.19323223391080
H          -3.55991213012409    0.09000282282209    0.97314256105380
H          -2.26286909707175    0.68897458271209    0.34772076392258
O           1.65015404362134   -1.61271677996402   -1.49175647963716
H           1.48043661646988   -0.72316009245053   -1.85064358904671
H           1.88624783832790   -1.46089366845475   -0.57186979887348
O          -0.68218715753607   -0.49154369940717    2.21032811833377
H          -0.77106615007223   -1.49460647486608    1.95908478053317
H           0.01935332769136   -0.10135690471204    1.48170989195749
H          -1.56452895778798   -0.05030668837045    1.96037851125850
O          -0.94109419286133   -2.22559441634627   -1.12583905961237
H          -0.92496420886332   -2.69057229460940    0.37501778336467
H          -1.17745634107747   -1.28026249565165   -1.14935378929903
H          -0.00099573287394   -2.24144005717948   -1.40380686398640
N           2.48232139483409    2.87259040625970   -0.48742380654777
H           2.99273382716765    2.43292290018571    0.26721624540028
H           3.01734814142650    3.66329398469152   -0.82248336589144
H           2.38400226986179    2.19582638963915   -1.23998338897211
