    26
        -50.45469731  Gyration_radius:  2.51018830062 Dipole_moment: 5.578
 S           1.26283395306247   -1.80175563803658   -0.22764545999154
O          -0.16153766730345   -1.97495635539207    0.34645345014267
O           1.53734753710408   -0.37915683715239   -0.33869953773834
O           2.16424937118684   -2.54039110839635    0.58362465742113
O           1.17837396530009   -2.39211424628574   -1.63793709769088
H           0.48036770469534   -1.82490023446237   -2.17876374477119
O          -0.85325829094693    0.87636029950632    2.44003817693282
H          -1.20914913708939    0.77577871192821    3.32402660962535
O          -0.28744963683946    3.11093523975813    0.87506712186382
H          -0.96438276847965    3.76518622085781    1.05231039315329
H          -0.42652787004674    2.38293029324371    1.50470888762540
O          -0.00195832646209    1.54220452067264   -1.34389821465620
H           0.72911948468170    0.96593951631500   -1.04743377788739
H          -0.00128255921044    2.28825519916286   -0.71684534000506
O           1.50543764713645   -0.35162230840524    2.32912510446277
H           1.72506405219744   -0.12623410319610    1.40979977423615
H           0.01431403613447    0.40333956913594    2.44016901899595
H           1.69848763680973   -1.29235904564753    2.39009001460592
O          -1.69465036870242    0.00223681908280   -0.01873526752850
H          -1.16233472534671    0.62980400747189   -0.57354699359839
H          -0.80368935334021   -1.19393526499624    0.15187654269484
H          -1.62181067931884    0.34590446723616    0.88970365408548
N          -0.58973538525885   -0.96034849415165   -2.81465196832974
H          -1.47760223830545   -1.13454680059979   -2.35932379554356
H          -0.68896169028857   -1.13341157415352   -3.80624073136018
H          -0.35126466125177    0.01685715650109   -2.67327145672595
