    26
        -50.45632301  Gyration_radius:  2.5133953733 Dipole_moment: 2.107
 S           1.88683091041005    0.05161336072968   -1.22962458076419
O           1.82016198362845    1.06447602705085   -2.25411958863383
O           2.10485732451249    0.61784739653664    0.09883890765013
O           0.76881891542088   -0.87783139367850   -1.22469026831239
O           3.16442165692046   -0.82857378033290   -1.55444685956542
H           3.77795489018936   -0.16623017078286   -1.85279269306118
O          -0.98585370127291    1.16877554233388    1.81506111991261
H          -0.64201412706840    2.06430392520037    1.79441446486993
O           0.10269003916472   -2.38456023136356    0.83766181728230
H           0.38534454024672   -2.04262004838256   -0.03836617980159
H          -0.88837789651530   -2.23019067247825    0.87323746843590
O          -0.10073810230292    2.77223714055014   -1.65452804465354
H           0.68189094814107    2.21173084832625   -1.85570559902114
H          -0.30735483799178    3.23209846702104   -2.47022330505140
O           0.98895419295537   -0.43724610144752    2.06628297080035
H           0.61776371012845   -1.37727751404924    1.62088489869783
H           1.55348875556900   -0.01787379041340    1.30647153119244
H           0.17698087499409    0.18171518890893    2.11088540280325
O          -1.37785372208397    0.61744609883847   -0.71927907512684
H          -1.10991233446785    1.47981972411831   -1.09930509458032
H          -0.65672552341295    0.00888894096934   -0.97774622332866
H          -1.21718136388891    0.95110125333340    0.86923915354601
N          -2.44737696271139   -1.64405679368446    0.89962808079523
H          -3.18919861606409   -2.30038196139029    0.69431680463744
H          -2.44019761045516   -0.93584776373086    0.17195563286625
H          -2.66737396405103   -1.17936370217557    1.77194926840697
