    26
        -50.45632239  Gyration_radius:  2.51294131793 Dipole_moment: 2.104
 S          -1.50949568512933   -1.61037070760739   -0.45085219563593
O          -0.52799788710931   -1.48760928646305   -1.52549603469519
O          -1.28862672260160   -2.78046402225303    0.36285870397443
O          -1.62613329412791   -0.36830635898685    0.29555576888728
O          -2.91601174051402   -1.81236985342784   -1.15303588566232
H          -2.89233939645576   -2.74029682507337   -1.35918663512188
O           2.23840044858209    0.56142035211937   -0.54648133545640
H           2.69655910656698   -0.25945278974117   -0.73889039633612
O           1.15922842126585   -2.69577061361497    1.34526221026983
H           0.27991957586334   -2.80531057998553    0.91865395007017
H           1.16641295160154   -3.30472553714245    2.08598429954779
O          -1.30460353075458    2.02980872784340   -0.75876386365210
H          -1.65151741455453    1.22132300168725   -0.32248424569557
H          -0.69938196128815    2.45544773233975   -0.08078021646984
O           0.28108381896840    0.78154020953239   -2.17795286385486
H           1.13315224385594    0.79058358523458   -1.61347058114424
H          -0.08700156008922   -0.17293570699446   -2.01949076057086
H          -0.43545086671871    1.42544424738423   -1.63765120528672
O           0.72818714104348   -0.06190518649762    1.50559019879893
H           1.01389117605300   -0.99239208473831    1.61735187717617
H           1.70703887429063    0.38196117975935    0.27870325715583
H          -0.18379570160607   -0.13250323703402    1.15867909986408
N           0.48092679609917    2.86804179585727    1.02036213230878
H           1.36665608094654    3.07122001018753    0.57383401031586
H           0.60155199275695    2.01647658454098    1.56011688180880
H           0.26934716305396    3.62114537308016    1.66158381940532
