    26
        -50.46400457  Gyration_radius:  2.43637366195 Dipole_moment: 6.306
 S           0.32269031163546    2.04782308148772   -0.88249589606223
O          -0.19468166827797    0.82959782547581   -1.51019114876405
O          -0.71615976408020    2.84223224841300   -0.26781874385911
O           1.44104087240199    1.78105077996048   -0.00894301648111
O           0.88374454336870    2.90147947009714   -2.10263231434288
H           1.13427393860581    3.70721136452041   -1.66376757551558
O           0.29584647627384   -0.96624416359483    2.25826125179940
H           0.27407314509340   -0.99087694215664    3.21554385619862
O          -2.36021523681104   -0.32327286033196   -0.71162234373169
H          -1.57032655464006    0.18623375069399   -1.04539676088053
H          -3.04817030342669   -0.19448454618315   -1.36569231293567
O           1.24464946048579   -1.38120019402882   -1.47833278113780
H           0.21330867476557   -1.97411063900474   -0.66189869630246
H           0.80816749579444   -0.52250296012708   -1.67704729761059
O           2.56301683264179   -0.53290304165817    0.61428939672618
H           1.92217614451091   -1.14946705872824   -0.78624650137385
H           2.31951300502372    0.39250120374896    0.40322165714868
H           1.96759563417371   -0.76959036245748    1.33913679678363
O          -1.25229767673388    1.00053926400715    1.52072088244661
H          -0.97601986371151    1.77642801399206    0.98901169676949
H          -1.93846798361516    0.57800875210299    0.98785135064357
H          -0.19158230783284   -0.13699490317004    1.99622263191993
N          -0.60668235626802   -2.24896771918272    0.04778337290790
H          -1.42676362475547   -1.67459287586744   -0.22946767799708
H          -0.29237570471883   -1.93802074111599    0.98795416275579
H          -0.81635346990304   -3.23987674688976    0.03155601089554
