    26
        -50.45632277  Gyration_radius:  2.51294484153 Dipole_moment: 2.107
 S          -2.15726872138106    0.60387281629189   -0.23523513140232
O          -2.63085693620073    1.32563658867598    0.92019738083212
O          -1.28337220766480    1.41577456039840   -1.07807843023893
O          -1.54866721818143   -0.68226781318532    0.06310504513350
O          -3.43657420034596    0.27096698005081   -1.10982945976673
H          -3.94451327592807    1.06883677533827   -1.01220565091625
O           2.16260515230819    0.94577745373249   -0.23332969458113
H           2.07846672016496    1.88823051669661   -0.07398324440772
O          -0.55632123412851    2.19874253408971    2.29804335879045
H          -1.34658665651515    1.97293932129291    1.75803318168087
H          -0.88952775643815    2.40109030332466    3.17415914746747
O           0.06272068218047   -1.97475658810975   -1.57984527633818
H          -0.67693219285434   -1.69380417329633   -0.99817261223804
H           0.80669129807166   -2.22745609441644   -0.95559431655589
O           0.66007735941429    0.33442453304934   -2.21065350103641
H          -0.18108631899963    0.81671706670974   -1.84796612160865
H           1.37230895870243    0.57269570962192   -1.51730126977005
H           0.43460026651122   -0.73367824392567   -2.04415844742556
O           0.57531181611644   -0.11104859263036    1.56766288148864
H           1.62693708005040    0.50616650094174    0.48454318369729
H           0.28685460778453    0.71490324498504    2.00872254238417
H          -0.21954171932104   -0.41320393099814    1.08402262028963
N           2.02122224098652   -2.31871713263007    0.18162456733751
H           1.64319499026909   -1.79647918851973    0.96608873644943
H           2.86370902785415   -1.84448779419620   -0.11939953411958
H           2.27654822754222   -3.24087532329453    0.50955005485510
