    26
        -50.45388636  Gyration_radius:  2.45366651787 Dipole_moment: 6.307
 S           0.56343264830123    0.91755364989903   -0.07179005742553
O          -0.79620362890775    0.33957772091718    0.10356099184744
O           0.99843206674558    1.50551735937059    1.18663576426227
O           1.46301981281854   -0.08887087801584   -0.57747530557823
O           0.42758358129556    2.02826144700672   -1.14013292913484
H          -0.16617024478409    2.70008718732246   -0.69597391989669
O           1.19678195523108   -2.87013722175272   -0.48806921471003
H           1.95580724371712   -2.28905036880905   -0.34990790913564
O          -2.06635089129797   -0.66179367527028   -2.01993203259287
H          -2.74002491009141   -1.23478221744535   -1.64985046178123
H          -1.66532259247453   -0.18245505873712   -1.26764620826665
O           1.37299230952943   -0.61087461202451    2.66045788429971
H           1.35377413590118    0.21930696967751    2.11930207230423
H           1.21458961005782   -0.34516667540718    3.56853912719079
O           0.43084237064813   -1.58846085308141   -2.59437353546469
H          -0.51128422735942   -1.33559717707488   -2.60331156492793
H           0.88872414535012   -0.84988288016663   -2.15839970363751
H           0.83813907151907   -2.56323820356227   -1.37827561404518
O          -0.31541574372971   -1.85695441116828    1.19370526889555
H          -0.61615892161258   -0.97900092591237    0.72317446313373
H           0.31192789774103   -2.38283118767048    0.45041513503321
H           0.34095027738601   -1.51320098376286    1.88716091826747
N          -1.02831843476009    3.38106116254416    0.53219570626606
H          -1.11407461293930    4.36668746396889    0.74299181690087
H          -0.40035727828274    2.94703313216601    1.20346438636960
H          -1.93731564997309    2.94721123695369    0.62353493183305
