    26
        -50.45023516  Gyration_radius:  2.51151472312 Dipole_moment: 0.811
 S           0.94458834829968   -1.39024152609552   -1.16507895576570
O           0.40141476228855   -1.93334297714345    0.06025178367283
O          -0.04897470705361   -1.04228358472849   -2.15664970480779
O           1.85459284480846   -0.27120721567738   -0.90296252000626
O           1.82971444330802   -2.53191672893402   -1.81035556460522
H           1.88982217465996   -2.20871093030984   -2.70237760699562
O          -1.36971909621153    1.96441054031793   -0.02060333277032
H          -1.87316645596916    2.72742068790007   -0.30894571405032
O          -2.20216519617855   -2.05665602496790    0.60869950684631
H          -2.51711589805042   -2.92734275644275    0.36181806814388
H          -1.23282658536169   -2.06860015970774    0.46298581539482
O           2.13069901424923    1.88335234604617    1.66066993384543
H           1.39728156667313    1.22972908189296    1.93629599567974
H           2.91422381076872    1.34880667906398    1.51265683971785
O           1.09576142042674    2.06525080931523   -0.61145606470124
H           1.56322613057472    2.15857846817317    0.32791616440831
H           1.37897940455120    1.08755299613394   -0.86131343783459
H           0.08256905932008    2.04291955511576   -0.40517883640242
O          -2.32764184324486   -0.07172238117447   -1.22249638069860
H          -1.54865941041409   -0.41709111080018   -1.70759441195810
H          -2.50095488401646   -0.74356735887515   -0.53290447867726
H          -1.78290880334227    1.16367933406968   -0.49399997104847
N           0.19483132830950    0.17861375320838    2.00767140145957
H           0.38406217613690   -0.58813859569132    1.36095659389089
H          -0.65526195743913    0.63220489294396    1.69036021325171
H          -0.00237165709279   -0.23169780363677    2.91163466402307
