    26
        -50.45023524  Gyration_radius:  2.51132435566 Dipole_moment: 0.809
 S           0.51800644230748    0.18140354784636   -1.96962840790612
O          -0.70338807832851    0.87534801668360   -1.62624885732549
O           1.72113234375353    0.80014782218224   -1.45834255029241
O           0.45158552124583   -1.23817461404152   -1.61001844421934
O           0.63445642035128    0.22828737189644   -3.54684908432911
H           1.55917237329458    0.03339499541406   -3.65031678738757
O           0.83870383408336   -0.13466737825983    2.23811038057968
H           1.42209344727802   -0.19465382396862    2.99626269432526
O          -1.35156152901648   -2.92873808978191    0.66449267261087
H          -1.68340152512595   -1.96536160652712    0.71858077427067
H          -1.50513502436237   -3.20704854478024   -0.24130073054524
O          -0.81947022749609    2.96255596673113    0.02442579488203
H          -0.84851963440634    2.21779286106208   -0.61232889950015
H          -0.79805797927638    3.76165238928015   -0.50402424355357
O           1.01005608268809   -2.09884135181737    0.64109141111707
H           0.07763965161820   -2.57692938524833    0.74981800463358
H           0.90282459395097   -1.70446765716810   -0.32394437070194
H           0.97982043086119   -1.30108266734032    1.29856071667833
O           1.51809114658158    1.94192231265827    0.92115352081083
H           0.69780426691914    2.45278819879500    0.76946280394300
H           1.11302579026527    0.71064134114397    1.74194997669321
H           1.73888901650016    1.56983713633938    0.04126297048777
N          -1.86420540216580   -0.37717731518198    0.69349799718148
H          -1.28798875879728    0.02911847192349    1.42282697798500
H          -2.80333118334232   -0.02109341875493    0.81808038198414
H          -1.51824203938686   -0.01665458908874   -0.19657470242768
