    26
        -50.45023531  Gyration_radius:  2.51112982264 Dipole_moment: 0.815
 S           0.09324783119133   -2.02575721223678   -0.26667293684411
O          -0.33214518346271   -1.64052024506486    1.06062224206006
O          -0.89305537744885   -1.79934847182285   -1.29975278739584
O           1.38291992275203   -1.42305788088642   -0.61664429196749
O           0.33757473170696   -3.58833332846583   -0.22562044011681
H           0.31855732965471   -3.78236870057085   -1.15605289669326
O          -0.52723348993270    2.08968289788938   -1.04783607757475
H          -0.76692394815318    2.75554803176426   -1.69430002100207
O           2.97681285366254    1.33335678823546    0.44663729628468
H           2.13469033043442    1.26875390318483    1.01877361226103
H           3.46019210356871    0.51852713896910    0.60123905825083
O          -2.60748024971134   -0.35888932695611    1.58357140210969
H          -3.26621030268916   -1.01032920554771    1.82840949755208
H          -1.76868825752436   -0.85304921600542    1.46853652244421
O          -2.40012507890211    0.35784961638056   -1.01502952915884
H          -1.92636508735926   -0.46889122914907   -1.24641658387014
H          -2.65007704030547    0.23929144272617   -0.07676428527909
H          -1.29716282156662    1.42407150914133   -1.03565874289948
O           1.61164466184004    0.83858009633283   -1.59259804865538
H           0.73136696096723    1.34995997034416   -1.40981171348904
H           2.27336862971639    1.15669995954821   -0.83733894692789
H           1.45658080680373   -0.15401459537433   -1.29399461143214
N           0.67797158498716    0.99897547574154    1.62126289739913
H           0.54654531799096    1.19238399813592    2.60597429951486
H           0.42986651660872    0.02079940686382    1.46823690280844
H           0.00412728517201    1.56007915681958    1.11122819262696
