    26
        -50.47000299  Gyration_radius:  2.46321541141 Dipole_moment: 2.787
 S          -1.56569008283284    1.33627688607457    0.81901551792215
O          -1.75351254007466    0.83079437322347    2.15708114045057
O          -0.31005261326270    2.00968667840405    0.59520494807566
O          -1.80411737993004    0.32021367313826   -0.21887410369341
O          -2.72988279391950    2.40313325173315    0.60345330402982
H          -2.98757652029881    2.57466876425702    1.50287348767645
O           2.44596986968654   -0.46811664016300    0.42807128016433
H           3.23564654751489   -0.63630924003257    0.94352780835047
O           1.00970288127872   -2.04523726421011   -1.30961555994191
H           1.66814645091617   -1.63023492367773   -0.72199145199414
H           0.27652500240664   -2.31343513556749   -0.73118725781658
O          -1.18370894683127   -2.16265220567985    0.37356131842008
H          -1.48703241199447   -1.24654042044493    0.16430379095079
H          -1.97112795135326   -2.66519688625431    0.58554238526816
O           1.80295320245608    1.79759854010703   -0.98138283154842
H           1.12247131683330    2.11116494274179   -0.35228593359405
H           2.25751489144703    1.08292437917454   -0.49952528089370
H           0.78376775771215    0.95867587545050   -1.81337638713515
O           0.42492480385780   -0.69545843931025    2.08066285345598
H          -0.26510989735597   -0.02483790579997    2.23801248566603
H          -0.04922038743181   -1.44037017670372    1.67965325704222
H           1.69495150900965   -0.44945603809726    1.07955287997769
N           0.02383409946326    0.26605645603014   -2.12295434168406
H          -0.77353846360900    0.37232149925348   -1.44203889171694
H           0.41420671375671   -0.71125938371952   -1.98123323060183
H          -0.28004507748131    0.42558934004696   -3.07605117684910
