    26
        -50.45114623  Gyration_radius:  2.59707386889 Dipole_moment: 3.650
 S           0.83051904162862    1.51254612830292   -0.03081959310032
O           1.03907574908757    0.46587916995691    1.07172060656770
O           1.13859226035028    0.90126070530008   -1.29750024339523
O          -0.47894951420093    2.08952997642337    0.07430336348250
O           1.88618639860905    2.58024552269803    0.28937091527987
H           2.76744779998806    2.09720608076753    0.09613991800158
O          -0.89812445823738   -2.67203296690069    0.61955222126125
H          -0.27093615708763   -3.33981105774373    0.89781034005265
O          -2.77715058495804   -1.11884661344126   -1.36816785278517
H          -2.87400819547621   -0.35240286606141   -0.78121757720050
H          -2.80967969196001   -1.89208632994139   -0.79810891154814
O          -2.79047677491944    0.94136716497677    0.51109678539047
H          -1.97685785899196    1.43421991056361    0.26160003689004
H          -3.45874199213198    1.60265488374635    0.69853233505072
O          -1.04512036984294   -0.47142954326255    2.06325477824231
H          -1.78583073311928    0.01620774644617    1.65670718628240
H          -1.04144664277910   -1.36012933751226    1.62401672044244
H           0.15627520799598    0.10822004466818    1.53667388080174
O          -0.07989506463415   -1.50390960134544   -1.59484038617485
H           0.39723142313536   -0.65782303425892   -1.55330959901822
H          -0.53062922989270   -2.27805632826837   -0.21608260461295
H          -0.99538274702761   -1.28415510977283   -1.84887987797207
N           3.79783245869261    1.00793253517223   -0.37259135337725
H           3.99131131478826    0.32191938253860    0.34480120025565
H           4.66084238256056    1.24746943687490   -0.84256729263051
H           3.14791599841734    0.60402413009918   -1.04149499618195
