    26
        -50.46272426  Gyration_radius:  2.48113369451 Dipole_moment: 6.117
 S          -1.01457470066639    1.52707313273011   -1.45162237606938
O          -0.40866653040442    0.22847604757568   -1.80584556307455
O          -2.42042987622039    1.42443755828596   -1.15548393609876
O          -0.21098460132622    2.19694897814995   -0.45906322886726
O          -0.92489110411662    2.39579338357776   -2.78550726514707
H          -1.82275276643649    2.34122662299654   -3.09580472567926
O           0.06316610348567   -0.25940434133878    2.35119742937377
H          -0.24814275580494   -0.29960753697627    3.25649686073753
O          -1.20483513370776   -2.13595232750120   -0.72508596719793
H          -0.99934460345413   -1.37134822291906   -1.29114791861053
H          -0.38118204390473   -2.35958154279682   -0.27204400550832
O           1.16084794793535   -2.23293656908483    0.91184487048924
H           0.76029299928994   -1.55588403698466    1.50653831467331
H           1.39896150832721   -2.98114917996984    1.46002003596445
O          -2.08160712369489   -0.18996148238576    0.93402319499558
H          -1.99280530067961   -1.01351721665487    0.41051656340030
H          -0.76725105245735   -0.14076791661925    1.79064588459617
H          -2.28631004169792    0.49812058583867    0.27340569750254
O           1.72943769052923    1.58305560881374    1.19521756449394
H           1.05177858979787    2.06869862641556    0.67981782443288
H           1.20814491023036    1.03398987501137    1.80863894614748
H           1.98117006873949    0.58353039751570    0.05533293690169
N           1.90778143109334   -0.16354332043398   -0.72289897242339
H           1.83721110446046   -1.08651148714857   -0.26956823115093
H           2.68578419750304   -0.12106241523723   -1.37077878027357
H           0.97920108317995    0.02987681913961   -1.22884515360844
