    26
        -50.46824842  Gyration_radius:  2.38791515056 Dipole_moment: 4.304
 S           0.87416735627259    0.36415961657006   -0.88064521199861
O           0.72232609501015    1.14941420965415   -2.09806756767109
O           0.23668256037790   -0.95196173684052   -1.03560241952776
O           2.21822159568107    0.28089605157558   -0.37073918389440
O          -0.00522838943077    1.12552245283516    0.18027736815935
O           2.65779332022295    1.09380027742209    2.13925063626895
H           2.92600505541511    2.01312012911806    2.12775325473787
H           2.61131025621775    0.81290327127658    1.20216550547550
O          -1.89017568834667   -1.22541903814332    0.59690600221766
H          -1.53422276868134   -1.15170220277497    1.48780661149154
H          -1.11067604825981   -1.26002749726026    0.00793446812538
O           1.60944512152162   -2.16753190425225    0.90382712609749
H           1.14560493285645   -1.90426473497787    0.08674655305303
H           2.49098758480846   -1.79346418929657    0.81697847501936
O           0.34911722839713   -0.28387991228229    2.28745291627165
H           1.10285907488810    0.23523014332826    2.62111423220338
H           0.08505102938258    0.60774646388743    1.04860992933564
H           0.77061542783166   -1.10230892137037    1.92471911421834
O          -2.74496663574476    1.07708798766963   -0.38068799173655
H          -2.20282339278325    0.63779855942330   -1.76845032850497
H          -2.65778064471796    0.20790153396644    0.08334057911750
H          -2.00204469171228    1.59570487671606   -0.04488350131090
N          -1.60212777150083    0.25268735983137   -2.57743106641851
H          -2.04160322376462    0.36138407065818   -3.48568919335884
H          -1.37696553122569   -0.72312173995912   -2.36808131851276
H          -0.63157187271836    0.74832485322289   -2.50460499886128
