    26
        -50.45942951  Gyration_radius:  2.4242444958 Dipole_moment: 1.895
 S           0.24951071294714   -0.59857879901901    1.77131918669794
O           1.01040495207319    0.48611952381568    1.19351492896143
O          -0.84068845490066   -0.14413980453196    2.62796008659167
O          -0.22852483735677   -1.53773055770286    0.76639283297579
O           1.23843634528485   -1.39122840699108    2.71046123090290
H           0.63356591960038   -1.92416756789605    3.21526778376481
O          -0.91885705820869    0.46894040170102   -2.25062455577932
H          -0.97215911458494    0.60399950253635   -3.19689518720779
O          -2.43875481573608    1.10906282890753    1.16167123148065
H          -2.64023639752522    0.31392075851576    0.49043820131896
H          -1.86979449572472    0.65251639107698    1.89032590078764
O          -2.48054219264963   -0.80760408335806   -0.43902168407986
H          -1.73269099566047   -1.27870324637874   -0.01091011465501
H          -2.09425591852574   -0.40859756895834   -1.24466090956130
O           0.90402211935361   -1.25448432853410   -1.68355908296363
H           0.56500566174298   -1.51528807066231   -0.80844453696090
H          -0.17671215142818   -0.20000924429885   -2.09842966335235
H           1.75638780373555   -0.79597659030506   -1.50055294820667
O          -0.56959259268626    2.13166060997077   -0.14782636431396
H          -1.73706758505367    1.69683017144579    0.63053388740996
H           0.14414593792649    1.65897085792972    0.33310891482324
H          -0.65546960304857    1.67493091856633   -1.01023669318481
N           3.06873643473024    0.12200451183131   -0.78585972599836
H           2.50665597181484    0.34870669604168    0.03341568856491
H           3.40489838578624    0.99216117027198   -1.17883910776887
H           3.87357594801983   -0.40331605394038   -0.46854929033917
