    26
        -50.45942986  Gyration_radius:  2.42422369044 Dipole_moment: 1.899
 S           1.00917860176019    1.52479926704009   -0.47013752478450
O           2.26428907854874    1.13611267569093   -1.10429638829476
O          -0.15812070958808    1.09785992942842   -1.20811110811017
O           0.97093855785564    1.10120597493442    0.92252526968284
O           0.99010608364134    3.10213158652062   -0.47276662897771
H           1.87022842618569    3.30217799068189   -0.17270243851749
O          -0.75669579159376   -2.15783338969388    0.94611666608165
H          -1.31767510207201   -2.82847669517598    1.33607787745813
O           1.81180240497745   -1.38405640384320    1.34212582770302
H           0.94271912060907   -1.83306628124104    1.36185714683014
H           1.59864981182632   -0.42614423271408    1.37899334270914
O           2.33313391651191   -1.36759649157005   -1.10075912149251
H           2.43603098559416   -0.34655059675950   -1.20111191420769
H           2.25409421359796   -1.49265512237605   -0.05177654446064
O          -0.11237876352744   -1.51905395174219   -1.60015488639993
H           1.34655554645045   -1.55155478257448   -1.43758913640823
H          -0.46915803752814   -1.85917196447669   -0.75346349410294
H          -0.26683656984997   -0.54952532976270   -1.58327335473393
O          -1.43959064522307    0.18217028123082    1.76608792407981
H          -0.59459882043606    0.63200407269511    1.58629414750762
H          -2.08181443988203    0.58408571732195    1.13650476493441
H          -1.08913843990977   -1.26907825134351    1.29407030313959
N          -2.85561083743004    1.35269007426774   -0.23635842496204
H          -1.97777509709923    1.38737813029720   -0.75284450983174
H          -3.17313337563055    2.30521854430847   -0.10888330575778
H          -3.53520012771816    0.87692924897982   -0.81642449909671
