    26
        -50.46824843  Gyration_radius:  2.38794418732 Dipole_moment: 4.307
 S          -1.00440960228871    0.81148711937435   -0.07075782479227
O          -1.99517406992321    0.53058317576773    0.93568331334231
O          -0.89605820910771   -0.25114694828837   -1.08149956731903
O          -1.12707278112811    2.11338409177735   -0.71254906569713
O           0.40468560007498    0.85925007067157    0.62968292228417
O          -1.67377856292694   -2.24561739715482    0.51234346935455
H          -1.51824294220339   -1.61168831185827   -0.21295573267408
H          -2.36560951125965   -1.84351208689432    1.04548144828090
O           1.52351044836996   -1.43668762810792   -1.02194671898651
H           0.60107289068771   -1.12143135338661   -1.09611394305090
H           1.58979678536106   -1.82879124886031   -0.14574804678980
O          -1.14190175745591   -0.08449339751968    3.39480605103513
H          -1.11032728343171    0.71355528834887    3.92332184009198
H          -1.55623850492793    0.16940127675500    2.54446755698030
O           2.55130984311314    0.99486164811305   -1.15914998317668
H           2.40540138195898    0.01653915044468   -1.15145411972434
H           1.39918383946454    1.37815791240971   -2.12818460927177
H           2.19133708734778    1.29067364782575   -0.31274267664215
O           0.52282697373485   -1.43270948831601    1.76346817044976
H           0.52033754076422   -0.03411327259159    1.09731943270706
H           0.15133696705489   -1.13536772011619    2.61348700841875
H          -0.22700959804650   -1.91731205615171    1.33689642288274
N           0.44258245729992    1.50420341409745   -2.61033512093521
H           0.04522023779882    0.57573035036655   -2.77370559466621
H           0.49541495205285    2.05661450567489   -3.46000635235476
H          -0.22819419238421    1.92842926761853   -1.85980828974443
