    26
        -50.45942948  Gyration_radius:  2.42438245746 Dipole_moment: 1.887
 S          -1.04768944758981    0.93042716847588   -1.26461199877698
O           0.30170220015020    1.32092752690142   -0.92395335172308
O          -1.13173575208396    0.18183208470938   -2.51409500538899
O          -1.70968202884603    0.21896883631118   -0.18021743437516
O          -1.85546103695496    2.26445531320354   -1.50232241297412
H          -2.63606552107195    1.93772271321646   -1.93663734619087
O           0.92696944901265   -1.70986497679773    1.53099126483141
H           1.33191635534711   -2.11475505709019    2.29815562217320
O          -1.15825526642329   -2.37710945211625   -0.06718457054859
H          -1.56155855902628   -1.48188659163016   -0.04554468035657
H          -0.45448888417015   -2.34904922463350    0.61217756622249
O           0.12845380468344   -1.95458347176548   -2.16545128995745
H          -0.39409647676725   -1.11879900234230   -2.46780660985848
H          -0.44362204734817   -2.30322920960915   -1.34398896128543
O           1.89057039284938   -0.79327423235560   -0.82328328237147
H           1.46132998328262    0.08916817906255   -0.85777318674457
H           1.71646602233774   -1.13777852592805    0.07704847521769
H           0.99078368352999   -1.55355173291899   -1.70180629623127
O          -0.44060595821891    0.35809144329965    2.21513848972834
H          -1.02734964294485    0.38553967321248    1.43818970051199
H           0.42480177233935   -0.89965256892211    1.86678436195178
H           0.11584807004061    1.16773412416558    2.14349580131070
N           1.03607014585448    2.54785899733500    1.57512116661752
H           2.03698708111731    2.62756058597051    1.70308661321236
H           0.63196561012165    3.46218855069664    1.73348624396576
H           0.86674604082664    2.30105883957668    0.60100112100036
