    26
        -50.45345925  Gyration_radius:  2.48068610784 Dipole_moment: 3.261
 S          -0.91934732000857    1.87511241343116   -0.03745258984297
O           0.22055161815612    1.58496754197266    0.82562927374349
O          -0.99981107460333    0.89651868907870   -1.12062017767800
O          -2.15745045751806    2.07296376843113    0.65881068469337
O          -0.56024730850093    3.25770334711646   -0.73794971922618
H          -1.41579510823142    3.62717991458644   -0.92979393248366
O           1.75148901955841   -1.59944213582989    0.82387063339021
H           1.84238872392983   -1.57063600253824    1.77696844821319
O           1.13916309186754    0.19424450552261   -2.45407379411492
H           1.05046565759526   -0.78848084920115   -2.45519430868489
H           0.26169141396898    0.53012670915425   -2.15618274454557
O           0.80502786786936   -2.39990605380968   -1.87861214052270
H           0.00997970782126   -2.31613142864228   -1.33383972454243
H           1.51008367358753   -2.65003963410871   -1.27448482765364
O           2.23996603577771    0.65750934515520   -0.28346110638750
H           1.87360877467971    0.49268163220868   -1.29741229825108
H           1.45154931432813    1.15933743797159    0.18672421289823
H           2.20922171207557   -0.26119950916431    0.15746811193632
O          -0.76765788088873   -1.37825255921088    0.22232624695829
H           0.76574324352401   -1.54983757862295    0.63390954021663
H          -1.24197786793178   -1.14555660243865    1.06103403550999
H          -0.90693306386632   -0.58552448451930   -0.33578017283847
N          -1.92891325306285   -0.23142855498242    2.33035998657308
H          -2.81567823319343   -0.51944846577908    2.72643887769675
H          -2.09627256005791    0.62089263971216    1.79331613286079
H          -1.32084572675034    0.02664590456133    3.09800134199347
