    26
        -50.46154448  Gyration_radius:  2.43327206473 Dipole_moment: 1.420
 S           1.54054571699228    1.42775420554957   -0.41317062734761
O           1.37711468549070    1.15467477831982   -1.82562595092772
O           0.29485610812657    1.73811858587162    0.26405250795396
O           2.26903912896881    0.36037739765778    0.26712629825123
O           2.43038635884143    2.72853367579895   -0.30616916949276
H           3.09245603469911    2.59853621216359   -0.97738931211382
O          -0.40272179735040   -1.92510390811767   -0.51094814566945
H           0.38973217150058   -1.97948077591088   -1.09620022336758
O           1.84265917735341   -1.46637049395026   -1.84394535147251
H           2.54753540355251   -1.49768546722756   -1.19161197186051
H           1.68447355919114   -0.51199114431719   -1.99115241764855
O          -0.87186152703508    0.56392859387853    2.36447985684345
H          -1.72603430955807    0.25072971603452    1.94608755744617
H          -0.51812736190319    1.24046689725396    1.75651120665403
O           0.73654784983803   -1.15633112461249    1.59272352787469
H           1.44141122727678   -0.56502260737470    1.15201361419088
H           0.04152648496403   -0.45991373793387    2.05001864130112
H           0.21898912769864   -1.57630197452491    0.77676923624602
O          -1.31565409091193    0.45526954657979   -1.37993612081818
H          -0.80350804804385    1.02941306104689   -0.77223926303484
H          -0.88577644580122    0.57349055142421   -2.23196293372550
H          -0.88091603299430   -1.12751328092432   -0.82889537689978
N          -2.94853589960665   -0.37054056945215    0.98401127079067
H          -2.90098721436030   -1.37941863715869    0.90993554787136
H          -2.75969884563836    0.01238353252639    0.06310161960513
H          -3.89345146129418   -0.11800303265683    1.24241597924244
