    26
        -50.46154199  Gyration_radius:  2.43334278344 Dipole_moment: 1.301
 S           0.44659683872044    2.08512663209694    0.17665802886299
O           1.28398025280982    1.02004839567778    0.69651209620770
O           0.45980163020338    2.17625395168291   -1.26792322509912
O          -0.91372887937746    2.00691208650764    0.70370320530200
O           1.06719414677634    3.43012156071581    0.72485680364681
H           0.61922697549004    4.10265679331409    0.22201214339781
O          -1.35489452322703   -1.13739717134467   -1.00037786913433
H          -1.74950174675103   -0.35077431098032   -1.44663134411195
O          -1.99451851104177    1.30394600837490   -1.81099196772400
H          -1.08880389373344    1.67126586087456   -1.75963650020007
H          -2.46326019074472    1.71045793150436   -1.07724057046964
O           0.66624994526022   -1.06300930639329    2.25590492466762
H           0.89743741372021   -1.82196717219196    1.64483651498815
H           1.12206902784764   -0.28382814693716    1.88516499946772
O          -1.53980634308309   -0.35109167710370    1.37853355668975
H          -0.64059600051181   -0.71300823729986    1.86510183854903
H          -1.35996749847755    0.63800172261294    1.20522256038866
H          -1.53092785147915   -0.77835612123855    0.41509145659213
O           1.23204024596194   -0.52771249189811   -1.43601469982087
H           1.20482873612938    0.10684078483172   -2.15806279726717
H           1.37953563739720    0.02381048116237   -0.63902306250716
H          -0.39498711737134   -1.07010311504422   -1.20048700832475
N           1.12712414060899   -2.89842214890267    0.38237521779886
H           0.26233952813350   -3.33636650936556    0.08942370636755
H           1.81265724971625   -3.62635549518819    0.53552450940096
H           1.44991079687902   -2.31705030550501   -0.38453249773329
