    26
        -50.46379214  Gyration_radius:  2.5274580147 Dipole_moment: 3.685
 S          -0.40019865273009    0.63222067898622   -0.11751592514376
O          -1.22329011502745   -0.66539379608027    0.16818466803381
O          -0.77720050049224    1.04979812844870   -1.44420541684911
O          -0.64372955178286    1.59247329350935    0.92842345205793
O           1.02228780130621    0.17812500434821   -0.10714366783312
O           1.28963797073022    0.29573194588768    2.55637467224326
H           0.92699226137720    1.16294250419479    2.75877537322866
H           1.34955095952696    0.27122588758582    1.58408880413394
O           2.19435577493329    1.06338071359971   -2.39144170783474
H           1.86340699122091    0.81304267360208   -1.50808908209277
H           2.04734501341631    2.00775860464189   -2.46628728570767
O          -2.29502294758698    1.17229063595470    2.97067424928904
H          -1.70347917683933    1.45744114087229    2.24302525207077
H          -3.18556873919914    1.38351628749485    2.68760350555514
O           0.15544294704457   -0.30146975410688   -3.48303961106309
H           0.35783873508485   -1.37578199508256   -2.47614822694099
H          -0.40745070215424    0.26245603950677   -2.90202543146972
H           1.01960595167355    0.15845714285867   -3.44355200837214
O          -0.95853215739301   -1.13168667973874    2.62828755477483
H          -1.56275371403946   -0.45062215682625    2.98781298908384
H          -1.14628364804184   -0.89272709470207    1.17302337262616
H          -0.05635206489784   -0.76256874885191    2.77462206091123
N           0.50881563498795   -1.90910925355896   -1.52105900972087
H          -0.39682776027677   -2.17404788427353   -1.13166154699454
H           0.87994008678749   -1.13787902341598   -0.87510777957134
H           1.14146960237080   -2.69957426486008   -1.59361927441083
