    26
        -50.47000548  Gyration_radius:  2.46321981001 Dipole_moment: 2.736
 S          -1.16550640767628    1.73093628952036   -0.74428992725326
O          -0.52895044677804    1.98685913482181    0.52482370693250
O          -0.41004744851289    2.15770738042304   -1.89667232024960
O          -1.61111083738140    0.33136353315262   -0.83238692604162
O          -2.51555375448087    2.57665311145321   -0.78431801342847
H          -2.25192990151715    3.31566551224608   -1.32204665209126
O           2.26999491033286   -0.39920118452931    1.03169126455222
H           3.21801055139616   -0.31469371086608    1.13974319704829
O           0.68105057930829   -2.52357089385092    0.30217466691027
H           1.38814807436965   -1.91883051427664    0.59431932186104
H           0.51914723932552   -2.30368962519624   -0.63030826098940
O          -0.03982433518739   -1.35125992860782   -2.09897775143083
H          -0.67215161831760   -0.71656926424927   -1.68417132253689
H          -0.37502984574723   -1.52928485974305   -2.97846285516545
O           0.29180735231949    0.62284380830954    2.63648127164715
H           0.01919930106289    1.32721304038775    2.01440759030106
H          -0.69854165542297   -0.42285468635350    2.03757486537286
H           1.13093810672945    0.29381629288371    2.26616692009668
O           1.69813348776777    0.64846158910080   -1.30100071224071
H           2.04657370951447    0.09373939362318    0.19744472072257
H           1.33888818862459   -0.12644344413718   -1.76027971113712
H           1.04590547028446    1.35377427229996   -1.46826388034965
N          -1.24434630149899   -1.06860574798248    1.37533954913282
H          -2.05782878620973   -1.47903251681769    1.81794859200558
H          -0.56304975258517   -1.80216452458952    1.02136063390459
H          -1.51392587971604   -0.48283246702053    0.54170200242232
