    26
        -50.46272430  Gyration_radius:  2.48134933518 Dipole_moment: 6.106
 S           0.62227096006990    1.39307019174760   -1.77272302850831
O          -0.26440969041776    0.21452797427885   -1.83366742989378
O           0.35909660852706    2.15191237972265   -0.57489210915853
O           2.00359650967668    1.06545818970121   -2.01638598455765
O           0.17885052823953    2.30123655176293   -3.00573967281773
H           0.88403066422902    2.12496948480744   -3.61983543136013
O           0.77821377746899   -0.31409868397376    2.21201674329018
H           1.39405767526460   -0.42755188608593    2.93726167969759
O          -1.06707778113277   -2.05199442426801    1.34833660715799
H          -0.37446899072614   -1.46228933483923    1.72917668673093
H          -1.19617249290581   -2.76958610546864    1.96918660276349
O           0.50245035512325   -2.27477195210733   -1.05459918368214
H           0.22132305089044   -1.47144077280369   -1.52672946455797
H          -0.11697178395305   -2.38169954579601   -0.32078216596469
O           2.22395415521454   -0.53767774781217    0.09722785085339
H           1.82008615797213   -1.32184354621338   -0.32960067099587
H           2.27094250197717    0.12939183418176   -0.61320538279978
H           1.34785516719780   -0.31004731164902    1.37926220267718
O          -0.89295779438959    1.79653014291282    1.70224972291469
H          -1.70305375191014    0.88091360221228    0.77111754075567
H          -0.27165107292902    1.15610399022206    2.09389239876318
H          -0.39067939474443    2.18608962870800    0.95610281046972
N          -2.04121055573961    0.15391205487482    0.04568480433231
H          -1.94959759752316   -0.78146188548937    0.46891130455289
H          -1.35033300490427    0.21597796269224   -0.77557567147429
H          -2.98814420057514    0.33436918868175   -0.26669076918824
