    26
        -50.46272338  Gyration_radius:  2.48107283418 Dipole_moment: 6.093
 S           0.53648615180502    2.27544939591319    0.02168090414062
O          -0.80168929508563    1.67711015865089   -0.14943377042122
O           1.28437391293563    1.54515377769779    1.01549194266242
O           1.21252514457297    2.50120365035832   -1.23004763016789
O           0.26049809744968    3.72716704172786    0.62075716156536
H           0.42445360112543    4.27026113110341   -0.14317561336330
O           1.25541049974048   -1.99732310752970   -0.18223691402299
H           1.91400266655890   -2.61400474309529   -0.50484105016245
O          -1.41307619745225   -0.07999152006964   -2.13273825414885
H          -1.33045127972427    0.67721863703090   -1.52698963439203
H          -1.61201634270699   -0.84446217159959   -1.57625484044497
O          -1.40842422691951   -2.26301950335109   -0.25653775498722
H          -1.66953737551336   -3.15693511089251   -0.47967140928849
H          -0.42252952699057   -2.24241359631927   -0.25552975535570
O           1.27990046001179   -0.07675983457389   -1.89289964153063
H           1.41689049083087    0.86310648197314   -1.67038868718219
H           1.31950028244487   -1.19794397062219   -0.79411998601697
H           0.36398558593799   -0.11578167652980   -2.23897946258307
O           1.11786121425678   -0.75835276131934    2.25781930438783
H          -0.36419030031858   -0.46157236377633    1.98046634837876
H           1.33529532259787   -1.33040818917301    1.49955995441861
H           1.39731604408776    0.13490207554598    1.96665072749538
N          -1.32170872543283   -0.20335138938952    1.54954075459816
H          -1.63588394656449   -1.00051796168656    0.97658782868085
H          -1.13324545902178    0.62509943573501    0.89100632241971
H          -2.00574678862591    0.04616610419076    2.25428317532026
