    26
        -50.46272350  Gyration_radius:  2.48181557647 Dipole_moment: 6.083
 S          -0.96807862095246    2.11366063385859    0.25943897708179
O          -1.28134630538940    1.10909643443250   -0.77536256050234
O          -0.77348655292095    1.46912617413648    1.53499960646351
O           0.06957210325646    3.02745162254215   -0.14470495694989
O          -2.28747909591047    3.00011868004722    0.38099968775813
H          -2.01190296393835    3.79028161111772   -0.07148109663529
O           1.91515139412147   -1.06485527144321    0.88786534120955
H           2.82220045293350   -1.18755477750832    1.17124903187062
O           0.61336846902902   -2.38879007983430   -1.04183092868957
H           1.15388074247070   -1.95403159112872   -0.34086735087035
H           1.09768991253101   -3.16352236980396   -1.32848589249267
O           0.56923482052018    0.09760344838086   -2.49169459909472
H          -0.17487222798708    0.54651445177295   -2.05348426363959
H           0.53424193987283   -0.82214692018750   -2.19762484585568
O           1.93906733069634    1.15229348351530   -0.41347485749984
H           1.35978571326921    1.91201559433902   -0.21501816836119
H           1.89445097394543   -0.15436264864334    0.45308342523841
H           1.65753523278896    0.85580065740282   -1.30399782528042
O          -0.35271152197405   -0.96312452423334    2.42195942451822
H           0.55300971888361   -1.07292611306940    2.07961847041953
H          -0.51198146475335    0.00227781879752    2.36326927947434
H          -1.17644170903962   -1.24718612268007    1.15638682816593
N          -1.58944683395606   -1.28423515527174    0.15771674012115
H          -1.53285244814105   -0.27942117022082   -0.21984298474410
H          -2.54614072069721   -1.61811950586003    0.14940691906513
H          -0.97244834865945   -1.87596437045764   -0.41812340077114
