    26
        -50.46824850  Gyration_radius:  2.38795560474 Dipole_moment: 4.304
 S           1.08083475272411   -0.53553081171200   -0.46607632820604
O           0.71616203714591    0.24270661647101    0.85296860237261
O           1.16725162524393   -1.93748292338966   -0.14906250417157
O          -0.00489805182598   -0.22610629695233   -1.40832806325242
O           2.32690758956441    0.07646850778867   -0.90731269836457
O          -1.88330095051578    1.34368416339239   -0.28077837411476
H          -2.23834981518455    0.82621913778064    0.44860765133004
H          -1.29921035975544    0.73285233615068   -0.77221566733343
O           0.42160793211140   -2.71489931964672    2.29915172978194
H           0.75560937673966   -2.52983428036303    1.39728488475973
H           1.19194058585128   -2.73815227904620    2.86772117322050
O          -1.58596222662358   -2.25746447393956   -0.70348487836741
H          -1.06401983088869   -1.57114059845514   -1.16021693005086
H          -0.96548976867022   -2.97569871381861   -0.54946100317528
O          -1.44763409097279   -0.91397391487481    1.58275060863328
H          -1.01333266887349   -1.57055241182080    2.15648022367410
H          -0.14786288210991   -0.16576762367028    1.19469842295738
H          -1.69127280978383   -1.43255334047265    0.77604129470240
O           0.09807781491935    2.93908779454525    0.43816297045999
H           0.52716616446903    2.29168065129055    1.01294409065533
H           0.77957781127999    2.63172719509193   -0.92355647566602
H          -0.78485196609271    2.53743060207710    0.24444511132124
N           1.17733171048049    2.15263235355091   -1.80431185692701
H           1.64932906352678    2.79813800212968   -2.42913041754503
H           0.41323204560602    1.65282255349250   -2.26578700271981
H           1.82115692163581    1.34370706438455   -1.45153456398231
