    26
        -50.47126130  Gyration_radius:  2.42926621194 Dipole_moment: 4.303
 S           1.50113903690920    0.47328227231139    1.08353463325823
O           2.49197306851963    1.03849491589706    0.17935387048737
O           0.30777354332612    1.31040442494987    1.14761392528796
O           1.18669861703455   -0.90755187611496    0.79380569658773
O           2.15105109228568    0.50074047579754    2.52239284023279
H           2.54516283055508    1.36626404990520    2.54545597162271
O          -1.90289254344676   -1.14990376295943   -1.13902571340089
H          -2.72774361195257   -1.57114051993961   -1.38203094853219
O          -1.81294172727406    0.68428144039936    2.62511568705311
H          -2.49118886155849    1.31323725099137    2.37327147163518
H          -0.99276067696825    0.97368318971729    2.17554412019519
O          -0.99249798658934    1.43201687017359   -1.18261525875954
H          -1.46331075898342    0.57733410856721   -1.20296230932397
H          -0.61540930851017    1.50214800840332   -0.28146833658720
O          -1.34307818515235   -1.66435774504678    1.33551668835005
H          -1.66130642107976   -0.95204369274267    1.92133099760114
H          -1.74816457137322   -1.37318354868480   -0.17092670457866
H          -0.38030282172315   -1.52268326217613    1.27110489285694
O           0.69728909069097   -1.82900038558418   -1.70636384559147
H          -0.27372544648661   -1.74825040007770   -1.65380932176651
H           1.16404455703294   -0.38083830341907   -2.14624721802692
H           0.99460111945856   -1.76038542945577   -0.78069184753006
N           1.32425405207829    0.67498631287848   -2.13085685431184
H           0.37263890104271    1.11364568672044   -1.92875453632346
H           1.74557600967558    1.02174994682970   -2.98504671660952
H           1.92312102247812    0.87706996265050   -1.28324117382159
