    26
        -50.47126132  Gyration_radius:  2.42925194658 Dipole_moment: 4.303
 S          -0.91216622304319    0.91133731017354   -1.41019546075116
O          -0.40191502757420   -0.43128629653973   -1.66732670667589
O          -2.32609287598802    0.87949769201753   -1.06583849718485
O          -0.10677828645423    1.62825462138423   -0.44743232676728
O          -0.80805435115488    1.70370040876136   -2.77209080759061
H          -1.52880073917790    1.33499214842123   -3.27163521969316
O           1.53054005199256   -0.69286373933727    1.84838967982231
H           2.26151140844581   -0.97923708266317    2.39661425320008
O          -0.46687913957728   -1.99204778435252    0.49945886828214
H           0.30764776221644   -1.67915276805108    1.00418417654647
H          -0.40549416879285   -1.55277590677178   -0.37374729282668
O           2.13881433264098   -0.91178802643168   -2.28905147992428
H           1.18415711011470   -0.72606365862038   -2.17636163873911
H           2.23025548966957   -1.86564374231666   -2.26018381372209
O           2.41244578730254    0.72260136139713   -0.13164459972090
H           1.93506624151923   -0.16389526283642    1.09500700026862
H           2.54457655619314    0.16980230419399   -0.92460812686960
H           1.58692678877229    1.21243187830061   -0.30403424512928
O          -0.33462721770276    1.28693699935940    2.23019112600010
H           0.38092485191431    0.62807644851745    2.30784065134461
H          -0.20181948294554    1.68338745931520    1.34973796473658
H          -1.59747449201832    0.41478905354311    1.83905459188971
N          -2.24000487461312   -0.24154771957240    1.29404645448054
H          -3.09323000701940   -0.46268160109857    1.79452502102578
H          -1.65482570756425   -1.10488587524394    1.06812769148993
H          -2.43470378716299    0.22806176845839    0.36697271651192
