    26
        -50.47150102  Gyration_radius:  2.42620964195 Dipole_moment: 3.422
 S          -1.50988978956977   -0.42198379064338   -1.03973913541612
O          -1.22604569632451   -1.22923457608532    0.13760447413258
O          -2.50455101877266    0.60070169926708   -0.75602583691419
O          -0.30977401111767    0.11451334615265   -1.64968607796452
O          -2.14533014030534   -1.39062059142331   -2.11308493830760
H          -2.94521763581244   -1.67444299732385   -1.68353845827471
O           1.98699417554219    0.07193038725791    1.52059888491010
H           2.81925739159901   -0.06866800464789    1.97278569667953
O           1.07056188181223    1.94185951318659   -0.25546226959265
H           0.68381176989945    1.33586842076693   -0.91726263759095
H           1.55260714858018    1.36399237444561    0.36596361646464
O           1.60205801692660   -1.56146722182636   -2.44557529842828
H           0.83808396591084   -0.97378993738490   -2.27934815683959
H           2.25096987528240   -1.03155725424590   -2.91118831839826
O          -0.60181862194916    0.02633427352455    2.44336546003438
H          -1.05815299756281    1.36886790945156    1.74272885566253
H          -0.92320052254862   -0.58669600850137    1.75375324123721
H           0.36740658105831    0.02954952607009    2.33340265545063
O           1.33022729282825   -2.06942901962630    0.21743797890994
H           0.36587099114539   -1.92033627177676    0.20388081614578
H           1.59691569861678   -2.05137601844260   -0.71965136240025
H           1.79982349423630   -0.77285864908748    1.01049736399257
N          -1.23619156218548    2.09095184381241    0.97556227353615
H          -0.29587229906598    2.24926131079748    0.49736834689930
H          -1.64883862084714    2.94765850680030    1.32643158074273
H          -1.85970536737548    1.61097124948790    0.26918125533073
