    26
        -50.47150110  Gyration_radius:  2.42620088627 Dipole_moment: 3.424
 S           0.80448189384443   -0.17243600569662   -1.69149861882409
O          -0.62720243078537   -0.40580367612525   -1.57353130892645
O           1.08656599773301    1.17800573120478   -2.15271940271408
O           1.52656882700466   -0.51612064387988   -0.48288369803715
O           1.33526958239796   -1.15578196242042   -2.80733553973318
H           0.86998519891802   -0.85669755995390   -3.58134997206857
O          -1.41776158920516   -0.08947979460502    2.05998631171296
H          -1.92833497220832   -0.34480598209124    2.82877857222099
O           1.34231362177252   -2.99277585624087    0.48134836619115
H           1.96266176820666   -3.04730435848226    1.21003229114743
H           1.51207630746925   -2.13587847962390    0.04147216441697
O           1.07267378516046    0.98442370921112    1.69200424488677
H           1.39549469870645    0.36911711841468    1.00497772725887
H           0.22811656356172    0.60257501484254    1.99753107075730
O          -1.23031325164454   -2.09719809886317    0.43232476258990
H          -1.09559047597951   -1.58524774881554   -0.38746908677495
H          -0.40932457286694   -2.61073277646645    0.54157811908383
H          -1.35112957231790   -0.90947748346023    1.48377474932705
O          -2.11247240632487    1.35807911808568   -0.17107327919627
H          -1.77196738436534    0.69779303484569   -0.80566056918341
H          -2.06663815839308    0.90979506056588    0.69407047436245
H          -0.84241592013626    2.30104937838186   -0.16649560593143
N           0.18139102913347    2.60641918624585   -0.16113866131097
H           0.29399482369200    3.61365544072467   -0.14979128370605
H           0.61570711266815    2.16871554679873   -1.02036789430826
H           0.62584953394135    2.13011206740511    0.68343607675893
