    26
        -50.47150112  Gyration_radius:  2.42627250706 Dipole_moment: 3.425
 S          -0.24659210089209   -1.07128272963273    1.52717773457183
O           0.66895685708826    0.05742082191757    1.60626719597551
O          -1.55632288682344   -0.73194752390715    2.06123643780641
O          -0.31249505611647   -1.64288227507625    0.19712521467082
O           0.34537889719991   -2.20302213291485    2.45613245217236
H           0.32210578981015   -1.79478314701550    3.31503014209201
O           0.77766211031911    1.53190689821282   -1.82026682504797
H           1.25067939266714    1.97819950113722   -2.52311642737331
O          -1.39233680756399   -0.13408534771927   -1.73829134667102
H          -1.01779724898828   -0.83289908177773   -1.16715506144392
H          -0.64133375655903    0.45384637041019   -1.94509477031351
O           1.92369341043753   -2.52614945664925   -0.95045148305488
H           1.09776001944978   -2.32988104039615   -0.46471623070391
H           1.65911408355617   -2.95298033880215   -1.76688358278464
O           2.42978308817792    0.09953620389065   -0.42973972513353
H           2.46524266604310   -0.83351226409131   -0.70887755402437
H           1.45730305942995    0.97124372562093   -1.33795882644774
H           1.92132036362508    0.09004484591134    0.40316461433642
O          -0.12430654627744    2.43806972320327    0.61318391010258
H           0.28040772994583    1.71117632822817    1.12551359502749
H           0.23889915992875    2.33327785901978   -0.28602930500228
H          -1.57452582769181    1.81662884629592    0.50126226928722
N          -2.34945357447255    1.09324479445473    0.36797302676534
H          -3.27884083757121    1.49282289483212    0.43056717945602
H          -2.18427087430368    0.35611994966927    1.10794618794608
H          -2.16003113041783    0.62988660518298   -0.57399882220946
