    26
        -50.47395386  Gyration_radius:  2.40834424324 Dipole_moment: 3.052
 S           0.36697273808603   -1.33517261461574    1.08813490055297
O          -0.99051110624122   -0.82815459052214    0.85334702779923
O           1.21601820414055   -1.08545787167555   -0.06928174273097
O           0.93383498453987   -0.80537183231966    2.30794055810321
O           0.23989907690094   -2.88919465409370    1.25576144185752
H          -0.29816715309038   -3.16560678810000    0.49763133887872
O          -0.35938179911868    1.72147843265653   -1.86937215199554
H          -0.51872276085166    2.15877334881781   -2.70671126391489
O          -1.68627324251781   -2.77057128878085   -0.68119623217250
H          -1.59800008753099   -1.94894746035268   -0.14059102111928
H          -2.54017141481750   -3.15097653954696   -0.46713322615233
O          -1.37303253462572    1.80293046072405    0.69932580769022
H          -1.42579160291448    0.83061644385740    0.80272844230349
H          -1.14991037913947    1.93367603809125   -0.23870436001312
O          -0.22679589650828   -0.88104223444608   -2.27729469619334
H           0.40402158576100   -1.02225182772479   -1.53966517372738
H          -0.91725152825140   -1.53719340594684   -2.13303741304194
H          -0.38901868483432    0.74771741644716   -2.05690091258676
O           2.06376286885948    1.41076040908005   -0.56285181924256
H           1.58765094079037    1.77479441821588    0.90417976817668
H           1.97559635345588    0.44124963418308   -0.46786356913206
H           1.31722417530922    1.66530858371861   -1.13516583412183
N           1.00410126729454    1.76992377417393    1.79871020796710
H           1.33465436262932    2.43031538105406    2.49299634130670
H           1.02888618752206    0.77639123672014    2.15633136734475
H           0.00040546515429    1.95600553038362    1.48868224416491
