    26
        -50.47395393  Gyration_radius:  2.40837383636 Dipole_moment: 3.053
 S          -0.91234553914412   -1.48188960216661   -0.26857773305013
O           0.31967329424888   -1.14580454829967   -0.99263302258555
O          -0.92989338724922   -0.84239743885710    1.04052811963239
O          -2.09206265810025   -1.17286730680984   -1.04492001099305
O          -0.88488856487861   -3.03279850613437   -0.03766805722083
H          -0.00162180436958   -3.20212953158957    0.32563362312036
O           1.35700676169317    2.03743889102265    0.77151011218153
H           1.96910860294546    2.62944347315493    1.21039516579288
O           0.67877158310208    1.36020965422083   -1.81924938078513
H           0.67589798845169    0.39412170872595   -1.65913788271493
H           1.04331189237116    1.73901732269412   -1.00043449298063
O           1.80703995799822   -2.75678924458412    0.35053286908702
H           1.40869327940787   -2.08116799457334   -0.24947288366539
H           2.38293283012436   -3.30051377332011   -0.19029246615987
O           1.52694114077178   -0.34680682441113    1.88669148549802
H           1.50530825003242    1.14167799077620    1.17122639063504
H           0.58635690692296   -0.55986309559882    1.70803784130826
H           2.01305816783347   -1.11519678937689    1.56842305526950
O          -1.36824892767639    1.79815722241013    1.20975423894748
H          -1.84368580830069    1.73275553320001   -0.30071959069722
H          -1.33732208321406    0.83141902101522    1.35537136311197
H          -0.43201864295490    2.06440673156626    1.16278644434335
N          -1.89199464787888    1.43061149905087   -1.32397599333787
H          -0.89877378813601    1.53023544543016   -1.70076247275378
H          -2.57521159190528    1.95232491356303   -1.86104045029147
H          -2.10603321209854    0.39640524888582   -1.31200627169243
