    26
        -50.47395393  Gyration_radius:  2.40824288627 Dipole_moment: 3.051
 S          -1.59305321534988    0.60654693020036   -0.44381440618218
O          -0.53078488589834    0.32539999566084   -1.41715141511944
O          -1.43525805512129   -0.22360601134849    0.74313880235979
O          -1.66682672486475    2.01401337551580   -0.12223522584385
O          -2.94430609117127    0.20130321461976   -1.12881604538330
H          -2.77624097011421   -0.68861396068935   -1.47564511812337
O           2.12266081019406   -1.19118235306661    0.81212702629301
H           2.78030728784666   -1.83982968956716    1.06610330255076
O          -1.56218597760584   -1.88450198559347   -2.23258833730807
H          -1.59553310269550   -1.97148755589279   -3.18704859558868
H          -1.01422289731394   -1.08611396681702   -2.03926330225994
O           1.97104654429380    1.02436164388262   -0.83100584051936
H           2.22756068167848    0.24456709821745   -0.30858111331568
H           1.11466107527020    0.77446592416425   -1.23487408728901
O          -0.11074420798425   -2.44331980432686    0.18010452702735
H          -0.67828196414579   -1.70049349433473    0.47693693210709
H          -0.43743023956017   -2.65952009498992   -0.70004492172328
H           1.32820688058828   -1.70591864569889    0.51501671904018
O           0.52680088219070    0.33465896382774    2.48498130271820
H           1.20000522982965   -0.23703714194304    2.07301292287161
H           0.67602364671328    1.72797755407376    1.74476003325051
H          -0.31041011629801    0.07137811300038    2.05321622768026
N           0.68871165261244    2.44723553721321    0.95531353475679
H          -0.28151531580410    2.43804734334587    0.53814335758012
H           1.34235851544217    2.04791643709760    0.21268027697229
H           0.95845054728793    3.37375261345359    1.26553343344190
