    26
        -50.47395396  Gyration_radius:  2.40830881743 Dipole_moment: 3.052
 S           1.36735088736804   -0.26285657560418   -1.07781714954696
O           0.27848236950184   -1.23098650704660   -0.89835441469259
O           0.90077097260333    1.09114733607973   -0.80964017244384
O           2.52803816154417   -0.60865103058351   -0.28844758269831
O           1.77984114795178   -0.33092414414556   -2.58931185455714
H           0.93838772890286   -0.26649191748654   -3.06733945663072
O          -2.06137752652051    0.71164651432864    1.35278548188496
H          -2.90805021475331    1.05970067524795    1.63523062854431
O          -0.66330197513117   -1.66235747706999    1.55498982546192
H          -1.29585320767154   -0.92472319264442    1.60603366937717
H          -0.39131642738480   -1.68373843058891    0.61449111255050
O          -0.88007944140031   -0.67027521469703   -3.12428312863287
H          -1.12575318681910   -1.43938596526247   -3.64183935175997
H          -0.59444584123750   -1.00301169205225   -2.23949952164235
O          -1.70869907212456    1.28909245328203   -1.19659769059455
H          -1.84777364994594    0.71457947520906   -1.95731483944700
H          -2.00276525538501    0.88671201863107    0.37807402010586
H          -0.73367564793309    1.34646250031577   -1.10712702428140
O           0.43902499190248    1.84664304779057    1.72184042662824
H           0.68313013748068    1.80195939494394    0.77569047501161
H          -0.50015654345002    1.58739468362141    1.74044595261203
H           1.22449973679673    0.54429267883541    2.16705701919442
N           1.58458754325343   -0.46120808540985    2.15785143982150
H           2.10509639573421   -0.57535749624352    1.24594942608029
H           0.71615804769326   -1.07737533012579    2.09034216732451
H           2.16787986902141   -0.68228770929621    2.95679055234575
