    26
        -50.47395397  Gyration_radius:  2.40835321989 Dipole_moment: 3.050
 S           1.19105153112194    1.06147207950896    0.74496451697976
O           1.26049160310450   -0.40356503646730    0.80724116132947
O           0.47570823788449    1.49201550918718   -0.44917906808544
O           0.62913647200464    1.62371532530485    1.95244133494774
O           2.66839018858503    1.57298598052235    0.62190397003765
H           3.04577505062008    1.03656491806539   -0.09258442274462
O          -1.63836258667965   -1.36547832010298   -1.42726017772728
H          -2.07047911862115   -1.85023601633416   -2.13156675297160
O           3.11202471723711   -0.60875648816218   -0.96519872053622
H           3.83104911888864   -1.19149937201791   -0.71387772313038
H           2.39987547176281   -0.72997869015725   -0.29192626933840
O          -0.98350324702269   -1.77540308919503    1.22491154807363
H          -0.06968329091821   -1.43292788727924    1.14339103234089
H          -1.30712521978334   -1.81880189865255    0.30827228406634
O           0.61121808420658   -0.34293213200120   -2.34975176218880
H           1.50487138440086   -0.68594248331210   -2.24114874810547
H          -0.76860029875047   -1.06160741649255   -1.79510705434261
H           0.57087142322160    0.43198088666443   -1.74986376913388
O          -2.18887492991010    1.20894617288171   -0.56323426021899
H          -1.26413260911429    1.51639526904879   -0.64719490116668
H          -2.18421106322289    0.32045487595970   -0.96340755898632
H          -2.14461458581666    0.94653305339761    0.99922199136492
N          -1.79247614559515    0.60789264746522    1.94892808097579
H          -1.58797065781550   -0.43205610745513    1.82603972982856
H          -2.44021528203623    0.79922567032104    2.70473054884823
H          -0.86021423776581    1.08100254929300    2.09925499985235
