    26
        -50.47250316  Gyration_radius:  2.48721360993 Dipole_moment: 2.879
 S           1.60236099571544    0.62688972648236   -1.47729773098724
O           0.90472537133476   -0.28568402826031   -2.37492705425027
O           1.05555476360756    1.96911989533169   -1.53295636007244
O           1.69684325281234    0.09666713173108   -0.13066731683914
O           3.08916201357829    0.73421030299786   -2.01352945305255
H           2.95785851133348    1.21854637323212   -2.82135166194811
O          -0.88708831980502   -0.64878413215321    2.52599156584618
H          -1.06953762972153   -0.63428503573981    3.46567180370666
O          -1.22480042077527    2.15125351629153   -0.32889977224407
H          -1.69077874554477    2.89925037643062   -0.70531085342769
H          -0.36871872671159    2.08375273544013   -0.82771332736928
O           0.87830389767567   -2.18069908176883    1.06565131058448
H           1.41824019663152   -1.43764324433065    0.73832490447379
H           0.28956658357905   -1.78466169344475    1.73398738330243
O          -2.33745829144330   -0.28567761244811    0.21280893254464
H          -2.03625206552767    0.61404616338040   -0.01568445139436
H          -1.43711586582401   -1.28946609255712   -0.64086838687316
H          -2.00124362065431   -0.44791325279101    1.11270217145020
O           0.44462330528874    1.46580927889710    1.79138225348269
H           1.05271093896023    1.04848230796712    1.14853364967064
H          -0.18732257995850    1.95409154403729    1.24350265680398
H          -0.35997214881209    0.17892052531638    2.32707330844083
N          -0.66045006132812   -1.89121144786815   -1.04507584323786
H          -0.05665468153960   -2.20289897710235   -0.22541788582204
H          -0.04590140619493   -1.27662146097154   -1.65393755566156
H          -1.02665525667980   -2.67549380812302   -1.57199228712697
