    26
        -50.47250313  Gyration_radius:  2.48724391616 Dipole_moment: 2.882
 S           0.17720131430546   -2.23037485208469    0.37116778288994
O           0.81289886742981   -1.98824230259870    1.65221011548582
O          -1.27647735242992   -2.16704268684286    0.46119339208104
O           0.69159393162069   -1.39429265528942   -0.69650994448997
O           0.53756897539970   -3.72138070245287   -0.02456940697763
H           0.30992222037839   -4.18305584244087    0.77516323577239
O           0.75197507438499    2.34842755705934   -1.22804866419147
H           1.26427071468675    3.08227953556655   -1.56791791592493
O           0.72585491788106    0.50349350624807    2.33527978412625
H           0.80018294455339    0.54340017584254    3.28986772688004
H           0.73031398964074   -0.46166465024448    2.10135496351308
O          -0.43585511450642    0.23118388804970   -2.53331656024109
H           0.08434471956157   -0.46833687388771   -2.09637761408398
H          -0.00469882435512    1.06407394417889   -2.26782345992684
O           2.26858553335572    0.63903757967843    0.02187293850827
H           1.99413789188078    0.72503413280306    0.94668401166311
H           1.84736691621380   -0.19038415364903   -0.28109575733590
H           1.40257657011862    1.73090675061927   -0.78320250791247
O          -1.03398849741854    1.95719006514883    0.83159773124360
H          -1.85590671958427    0.83235623538112    0.05316752757049
H          -0.44762512608421    1.48651019703206    1.45370695755195
H          -0.44823501078892    2.28640235927842    0.12611028478397
N          -2.18360446146893    0.04431490678286   -0.57956305675124
H          -1.63566648807074    0.13316919655676   -1.48806013492840
H          -3.18512646730610    0.07420394759663   -0.73099306918751
H          -1.89161054939889   -0.87720924833790   -0.14189834011543
