    26
        -50.46547056  Gyration_radius:  2.52394219581 Dipole_moment: 5.000
 S           0.20393928746262   -0.84481564870528   -0.14516805052465
O           0.55809124084918   -0.88761998274694   -1.55100445335745
O          -1.22554902277142   -1.18380630001304    0.02576360581899
O           1.05733467907251   -1.61183776030270    0.72602748767256
O           0.32488902979196    0.66799475891231    0.24771716126561
O          -1.06007285351774   -1.63022464579316    2.65270622252820
H          -1.27179519521581   -1.54861231489696    1.70428219522494
H          -0.28720029758240   -2.20137791006857    2.68481204500700
O           2.47515965807365   -0.63998987239849    2.75546857692752
H           3.35018875333052   -0.41296017452936    2.43899312381001
H           2.02665561824036   -1.10001465996110    2.01526115486579
O           1.04862687181467    1.24407853241975   -3.01513899446829
H           1.98331873038773    1.45257860942284   -3.00342637301092
H           0.94861660863773    0.41995938246952   -2.48508726131573
O          -0.92093114800670    2.30965635953324   -1.57248523432555
H          -0.18580005834732    2.21057583204306   -2.21475048514925
H          -1.67224468040835    1.00479783363219   -1.93924545222066
H          -0.53114023984058    2.03170824679631   -0.72741204724318
O           0.15814452292981    0.73249205374278    2.75239872836555
H           0.24446588752483    0.74589972357706    1.27981963114345
H          -0.42566401647903   -0.04735772990216    2.90676321289974
H           1.05290843834984    0.41874190881129    2.99134452908514
N          -1.94188422752957   -0.02587847866632   -2.11982804893337
H          -1.77528109943425   -0.55250736063463   -1.17991303137339
H          -1.24664385708658   -0.41862930628968   -2.75654061180489
H          -2.88813265024668   -0.13285110645128   -2.47135765088392
