    26
        -50.47250314  Gyration_radius:  2.487364092 Dipole_moment: 2.884
 S          -1.73891980526569    1.17454407791073    0.86138772371955
O          -1.93917434275944    1.58362175986731   -0.52347639865911
O          -2.44302955791498   -0.05459815120602    1.17295634315063
O          -0.33392762987913    1.14274452287862    1.22004982487694
O          -2.39763858724365    2.29989178625835    1.76095514322447
H          -3.32111491468548    2.15958888194271    1.58235286337994
O           2.56097309296194   -1.01253455355031    0.09165056086518
H           3.36272830048772   -1.45524052825977    0.37043386761854
O          -1.29275576138814   -2.13077346777126    0.14867026728839
H          -1.95867795006115   -2.81386995519992    0.05769065449307
H          -1.76410634122770   -1.33666073115976    0.51396278108616
O           1.96297295511943    1.67159935949025   -0.09603098634892
H           1.23863634873239    1.66516396200745    0.55673720994845
H           2.37611059634741    0.79223775176026   -0.01805434131765
O           0.68745386197767   -1.23413523887385    1.88758645153529
H           0.03125046081252   -1.80577247662137    1.46257989044851
H           1.90183331855207   -1.12429665257753    0.83699443910806
H           0.30567008563979   -0.33567868954841    1.82312265440088
O           0.56717655701951   -1.48686825726404   -1.74785974736992
H           1.37699398544768   -1.44458564743251   -1.20780192928026
H          -0.13239415007341   -1.79032030388687   -1.13883806495929
H           0.28934132698898    0.06213229003131   -2.01284679590628
N           0.18941263135597    1.11822520229046   -1.95464590860306
H           0.19899587430587    1.54908285895648   -2.87176219368270
H           0.98337409323942    1.46701501048356   -1.33691892032659
H          -0.71118444850779    1.33948717949602   -1.43889537869077
