    26
        -50.47250310  Gyration_radius:  2.48709199036 Dipole_moment: 2.878
 S          -1.84893243062119   -1.06227806383189   -0.77121671121343
O          -1.43757042664886   -2.29526789777313   -0.12773610901935
O          -2.54625503516837   -0.17149957273916    0.14825038245566
O          -0.77153029510369   -0.38663622942964   -1.46856945116679
O          -2.90135596317448   -1.47449828639005   -1.88123550750337
H          -3.48556684371583   -2.03366916273838   -1.38067584861437
O           2.50580435313666    1.10068019689850   -0.31502099980676
H           3.42583359467730    1.23616387321970   -0.54233472943947
O           0.58051782178817   -1.94741185996601    1.45012526454021
H           0.56019016015360   -2.64844358251007    2.10321256225222
H          -0.21872109270632   -2.08495052285597    0.87696648232742
O           0.21251209059927    2.12721694460899   -1.44723867342192
H          -0.15996334766332    1.27089655455530   -1.72773412884674
H           1.11939027692679    1.92024509587114   -1.15578252670524
O           1.70416115230711   -1.27860516063094   -1.00869648807456
H           2.26936938484329    0.17968250600681   -0.62870292241524
H           1.55114199232782   -1.72407314193401   -0.16255093318411
H           0.80841126763604   -1.05066570274826   -1.32949760145349
O           1.06550468571308    0.68612802448593    1.99599367051010
H           0.90435577176228   -0.27209935769666    1.90461096867825
H           1.71254653755619    0.90499088731470    1.30134724812881
H          -0.24260760069035    1.41380098706989    1.44261955646960
N          -1.02425377054553    1.82463188377079    0.85192619970185
H          -0.58320276697741    2.13586200965371   -0.06572957690503
H          -1.49689253798897    2.58431415387122    1.32767625650327
H          -1.70288698842336    1.04548540392594    0.60999362620010
