    26
        -50.47250304  Gyration_radius:  2.48724072335 Dipole_moment: 2.891
 S          -0.51673633850065    2.07963469203405   -0.74275668190447
O           0.48424911470427    1.98013970714395   -1.78756700151667
O          -1.77544435455938    1.45419581520772   -1.12983357048390
O          -0.05243558825910    1.61110962815645    0.54893198442216
O          -0.81946790295572    3.62473926710759   -0.56729943508323
H          -0.97544699391612    3.88438580592734   -1.46884830259487
O           1.15884093412526   -1.74913524274072    1.78631660289645
H           1.78116021142743   -2.19348627333899    2.36229409436306
O          -0.01962695390683   -2.27239794929674   -0.64733893037719
H           0.51183579504190   -1.67330609411946   -1.20522235400785
H           0.42833586109018   -2.28257793325813    0.21775904022047
O           1.46130461009533   -0.40520421473246   -1.98400729454228
H           1.06602513107368    0.50491918418785   -1.94274780797395
H           1.79361197521133   -0.50779387716637   -2.87692700888401
O           2.26571457155414    0.28374150966333    0.59163766193318
H           1.64915389180625   -0.97467773610913    1.38340527298941
H           2.30216562361864    0.01125587579103   -0.33691047757612
H           1.51652821096273    0.91166101671356    0.63192124573275
O          -0.99761151318324   -0.13725068338882    2.37556130010052
H          -0.24911175535719   -0.76165507987703    2.37309048381630
H          -0.65533952542330    0.66287313505050    1.93564157182763
H          -1.82481981924362   -0.60921878960404    1.09726042453917
N          -2.10095692897291   -0.82555185481231    0.09197532022904
H          -2.04144543209807    0.09092773998241   -0.43955573208234
H          -3.03007976947692   -1.22466645558231    0.02662930017909
H          -1.36040301477826   -1.48266121308796   -0.29340969618864
