    26
        -50.47150034  Gyration_radius:  2.42633561814 Dipole_moment: 3.443
 S          -0.89099383072031    1.54501009718549   -0.59482509990717
O          -2.30992400779042    1.22436988874691   -0.60406602339797
O          -0.35069232831163    1.52797527504844    0.75636850959944
O          -0.12295945483864    0.72670504717000   -1.51171846582615
O          -0.75695527661882    3.02766169814933   -1.12157125944839
H          -1.33021186046769    3.50630804167297   -0.53239231876918
O           1.42302571942709   -1.73580267336571    1.10685853699416
H           2.13588682231833   -2.26516229795074    1.46550365272360
O          -0.15874642256940   -1.92509698196347   -1.11836233591789
H          -0.06581088286463   -1.00720088064395   -1.44033985517294
H           0.48587833637405   -2.00425435455428   -0.38986897404454
O           2.47325519414700    1.22783052492267   -1.83761882046183
H           2.77218956864599    0.65831806495891   -2.54832068776244
H           1.49871582412931    1.14774786555116   -1.81478514290791
O           2.21518498958300    0.71550987365856    0.82596215888856
H           2.53545542610320    0.92100722319178   -0.07118960280804
H           1.33832443552016    1.14037147246543    0.87957022444606
H           1.79419007206375   -0.80967077033844    0.99040424762832
O          -0.79624077515402   -0.63859346202692    2.30233960646950
H          -0.64281253299951    0.25940245615136    1.94916424980466
H          -1.83218902735113   -1.10796084371095    1.20293084709202
H           0.01498441086020   -1.13066064332898    2.07601995267372
N          -2.28808479981021   -1.24613111265087    0.24664613141398
H          -3.14279853568148   -1.78915975370861    0.29040912430972
H          -1.54360017392217   -1.69435719360722   -0.37210022541441
H          -2.45507091006372   -0.27416655103401   -0.13501844022575
