    26
        -50.47001080  Gyration_radius:  2.46299781412 Dipole_moment: 2.612
 S           0.50091360381206    2.13051906157440   -0.34994484574024
O          -0.17772097745670    1.92115872539921    0.90725094433707
O           1.93976597460461    2.14370597278681   -0.25677895704073
O          -0.00625778221510    1.21535245769932   -1.38236211135467
O           0.08422951111544    3.57448155218207   -0.87917840472352
H           0.74255365333248    4.12355139807028   -0.46659782949685
O           0.15359349978278   -1.65538116950638    1.89724959259108
H           0.55001174479336   -2.11637392491903    2.63741718932616
O          -0.56681220289429   -2.49541836468787   -0.62168463074876
H           0.18713400550327   -2.16205237942419   -1.13593144012771
H          -0.30702338960218   -2.40240959610157    0.31371433624155
O           1.38458812310704   -0.96559133960165   -1.85312962614240
H           0.89404299754709   -0.11686152354832   -1.73891030863836
H           1.91054402136182   -0.86767455625991   -2.64767187250559
O           2.08454443787230   -0.31340603600312    0.74370243655736
H           2.09321731885530   -0.72958591804706   -0.13218499640603
H           2.08763791016057    0.64418482876312    0.55776864694333
H           0.86673859659135   -1.06750260330371    1.52973067494844
O          -1.88068156119826    0.18578160094846    1.94521726814819
H          -1.31243573728453    0.96154445738588    1.76199601654003
H          -2.14385476034998   -0.10313212080459    0.43588412552568
H          -1.24809447592593   -0.52721494264812    2.14767479542068
N          -2.02871380093285   -0.29599460570430   -0.61448116170708
H          -1.58958260794452   -1.25813901076382   -0.71018814731979
H          -1.31579160028766    0.39501854852978   -0.96757989197538
H          -2.90254648242271   -0.21856050174365   -1.12098180249561
