    26
        -50.47001091  Gyration_radius:  2.46307290515 Dipole_moment: 2.616
 S           0.48650371894774    1.73128869543681   -1.29549102284378
O           0.45084859072439    2.08078964234742    0.10503421946645
O           1.79818928502252    1.40190830540507   -1.79560554156597
O          -0.52801651411886    0.71565339470292   -1.61178804279900
O           0.01569935884317    3.01308671401462   -2.11653148643911
H           0.84178602500613    3.46653594590417   -2.24690291818601
O           0.85319912581802   -1.00761110083268    2.14960833437882
H           1.50026110410107   -1.31753939579807    2.78427137097436
O          -1.03112244031257   -2.33501176649856    0.64700139003441
H          -0.35954958755063   -2.04176233647115    1.29048691837355
H          -0.57312735466990   -2.37208422239024   -0.20906502750303
O           0.26624463789999   -1.78749868096441   -1.73669520097192
H           0.37013707936671   -2.06553695151907   -2.64746092386832
H          -0.03008267872616   -0.84651965895044   -1.76593210223752
O           2.15036538784312   -0.60515324996499   -0.09012237515853
H           1.71112073100545   -1.24730288849092   -0.66907402409144
H           2.16024388607738    0.22159138034553   -0.60771266942291
H           1.36836688428642   -0.75679912660854    1.33666457347899
O          -0.73642099433476    1.22372045027015    2.30635777628917
H          -1.69590007442272    0.58292135355899    1.25776451980528
H          -0.15498177253501    0.46417882835702    2.49213930602059
H          -0.24537442198219    1.73915682547434    1.63453773962441
N          -2.10032127615566    0.06789766198564    0.40634284523948
H          -1.56884978057572    0.41801641129199   -0.43354708529844
H          -3.09710281437105    0.21500368481493    0.30169621797674
H          -1.85211612461195   -0.95892991562365    0.51402319865739
