    26
        -50.47001089  Gyration_radius:  2.46316734268 Dipole_moment: 2.614
 S          -2.02103300198299   -0.58457925247217   -0.69802193109194
O          -2.24401083679412    0.30066906514797   -1.81416655524015
O          -1.03539208340140   -1.61224187658140   -0.93748070949074
O          -1.74915160244646    0.12435551202740    0.56067460674378
O          -3.41278286969569   -1.31414332129790   -0.43486844972137
H          -3.75552612626703   -1.38930078220422   -1.31913472466151
O           2.36341245032998   -0.08271161491174   -0.87817132881088
H           3.07329707755770    0.00974111999628   -1.51460906596859
O          -0.48676293899245    2.42522077977677    0.40274536348674
H          -1.10006281481287    3.15536131343629    0.49411913042200
H          -1.02523536550418    1.60085707433357    0.47014040713874
O           1.79600854655245    1.26337105993164    1.45338087752409
H           1.10276400216285    1.86701806468172    1.13870565185505
H           2.18653595197133    0.87198205623268    0.65002113159054
O           0.28113833854387    1.12123345545050   -1.91443288010586
H           1.55142197455621    0.28239818423041   -1.32175898208576
H          -0.60183093538276    0.72848469228281   -2.04753132307835
H           0.13680129097852    1.82343074742394   -1.26129878471811
O           1.26460466668852   -2.39720408256119    0.10395956903705
H           0.71878645120947   -1.59157026264391    1.32197351222250
H           0.42687081184510   -2.32742294888899   -0.39749482647941
H           1.83954449633310   -1.72339893511731   -0.30223771732915
N           0.27738929522156   -0.83963590897548    1.94930961308681
H           0.09677418171750   -1.17485705143864    2.88799834539986
H          -0.61126126255937   -0.53680607841436    1.47066142158942
H           0.92770031172652   -0.00025100995094    1.93751766848130
