    26
        -50.47229256  Gyration_radius:  2.48026253479 Dipole_moment: 1.992
 S          -0.10979910013841    2.24860898912454   -0.35569168918072
O           0.66305221250966    1.48838249520580    0.62224199886763
O           0.45733847440627    2.14716427898912   -1.68626842508927
O          -1.52077694776577    1.92754499685498   -0.29107813145983
O           0.01851999646128    3.77396949280255    0.05441536217558
H           0.86846805353758    3.99560931028012   -0.31103360360050
O           1.15904445046151   -2.26773752647911    0.98398332259648
H           1.80066288698820   -2.94511637679150    1.19845607038737
O          -1.00502547514541   -2.06905123009194   -0.70560410129540
H          -0.26293263947438   -2.33314460281086   -0.13218736564424
H          -0.61139669105879   -1.49492793425304   -1.38976311126929
O           0.21909497250013   -0.32335318756759   -2.42429306857710
H           0.26395065297050    0.63371004295340   -2.16931191857661
H           0.01587200311546   -0.33610903815747   -3.36095692644833
O           2.22026696556885   -0.37673291389568   -0.46116882715548
H           1.77198748688625    0.39314528445328   -0.05262494099779
H           1.64498277074204   -1.57573682893878    0.44917868870411
H           1.80046021415452   -0.47080535487243   -1.32720775734686
O           0.00458971772935   -0.29213726123613    2.53077586318069
H          -1.37181874665950   -0.33656624890171    1.73256129363613
H           0.46934230096953   -1.07247927691130    2.17845806612895
H           0.35841357303335    0.46097039527194    2.01924103880465
N          -2.07914735550034   -0.30922231260907    0.93667192799633
H          -3.03308520408108   -0.41718970707651    1.26037608565084
H          -1.79952669396406   -1.07068246376957    0.24957547586398
H          -1.94253787250117    0.62188697197228    0.45125467895335
