    26
        -50.47229272  Gyration_radius:  2.4802668775 Dipole_moment: 1.994
 S          -1.19939609346621    1.93768039706877   -0.04159782404304
O          -0.47494946270843    2.45650357963874   -1.18544032978031
O          -1.63232863114150    0.55960576339459   -0.25381610040949
O          -0.50040769584739    2.09246218914125    1.21760955678381
O          -2.51593565870546    2.81273229508798    0.06980872979100
H          -2.73921989719722    2.93287629600106   -0.84703033904292
O           0.40500952447633   -2.63934685478365   -0.56997842836772
H           0.46639480464480   -3.47288870052459   -1.03683679913133
O           2.19615666773897   -0.84496032455232    0.50224369611427
H           1.71422585545896   -1.60483581309667    0.12867007299844
H           2.11981932373878   -0.13690561835277   -0.16520201630208
O           1.71675763407770    1.09057608121689   -1.37486617116414
H           2.41513536750616    1.68513774984594   -1.65339854229697
H           0.90582913661842    1.65221029593634   -1.27515224896372
O          -0.28629107540038   -0.70230516786381   -2.17025983489224
H           0.50066056177266   -0.14302355447449   -2.22527678529211
H           0.11913997725042   -1.95726562719312   -1.24377429568904
H          -0.89004370887477   -0.21915493820373   -1.56807157563232
O          -1.46784985796931   -1.68565622803466    1.22177999528760
H          -0.90076345985663   -2.21454212130432    0.63205835708195
H          -0.39777036679782   -0.83361038996850    2.03570995295871
H          -1.75932163918967   -0.93002652592984    0.67581209868967
N           0.37185338771337   -0.13463902017490    2.26726699345907
H           0.02806361566899    0.80717019655768    1.92657316578398
H           1.21556751392798   -0.39833895064205    1.67678339791751
H           0.58966416490983   -0.10945501223121    3.25638528603112
