    26
        -50.47229278  Gyration_radius:  2.4800990623 Dipole_moment: 1.991
 S          -1.33938020531238   -1.67410247989460    0.77208292602919
O          -0.03473277430994   -1.73825936360100    0.12011327775425
O          -1.23133089313626   -1.24052545325322    2.15148396195869
O          -2.29347071924340   -0.91550184771256   -0.01051523199762
O          -1.89020048508609   -3.15910798323970    0.82758944492662
H          -1.43545954156564   -3.49956212548361    1.59062446697317
O           2.38581701078111    1.04113513622564   -0.82586934610911
H           3.31299004975949    1.27574274368071   -0.86850463623480
O           0.91420253024874   -0.82800553986079   -2.22835098948091
H           0.66214814744285   -1.36563781702994   -1.45280413959266
H           1.58023692020787   -0.20202373955828   -1.89119835410069
O          -0.39062111227107    1.20821571276702    2.09828880860040
H          -0.76358550253779    0.28998546221732    2.12298663921585
H          -0.83017682300763    1.68861161045388    2.80160942487061
O           0.03107459092800    2.38263366934101   -0.34047291106148
H           0.93650471969982    2.08813402019184   -0.54691042423185
H          -0.83051953764802    1.44233069543299   -1.29699682106786
H          -0.15049930397526    2.04997933658117    0.55894081215182
O           1.84473705332602   -0.30374081121472    1.33967413931496
H           1.29227262713796    0.29329400053318    1.86259625264290
H           1.21509018624320   -0.95160460840343    0.95968239324295
H           2.26464151884978    0.51612809081005    0.01712784583163
N          -1.23672061181594    0.62249674646653   -1.83817055243449
H          -1.74618180379326    0.00604862065350   -1.14410455837642
H          -0.41286074642907    0.04990161153873   -2.19587543770219
H          -1.85397528448815    0.92343431235161   -2.58302697113041
