    26
        -50.47229284  Gyration_radius:  2.48027998796 Dipole_moment: 1.994
 S          -0.14489869397007    2.02717174978451   -1.03152775234627
O           1.29178690382529    2.22297016904300   -1.03144792805127
O          -0.51119796254074    0.69830680811397   -1.51245912777496
O          -0.78084684148580    2.33370705066622    0.23334594287381
O          -0.72227443495753    3.06321353294408   -2.08262860539869
H          -0.05439022324987    3.03605162447673   -2.75946811476766
O           0.07284286446723   -2.72997518804058    0.03170294525363
H           0.29750912648893   -3.63901982346653   -0.16724242037246
O          -2.15615268462171   -1.22166368882253   -0.58937295022824
H          -1.68481789676121   -0.55545655516672   -1.12605694879620
H          -1.49794117292205   -1.92125436941629   -0.42712288462182
O           2.27386967450680    0.58320555888934    0.71548280500419
H           3.00180540231540    1.02191892488673    1.15863225292547
H           1.89909262333334    1.24978746374097    0.08453933436110
O           1.47498556118138   -1.06810559630910   -1.40450123324124
H           0.77653751278867   -0.40645120102148   -1.59115211830416
H           2.05832035824459   -0.63212127811534   -0.76829472019712
H           0.63587473742836   -2.16089527588068   -0.56847424623417
O           0.53621050500475   -0.99929543442676    2.12163875453400
H          -0.83744808448986   -0.21561008992041    1.92323563110887
H           0.41771217745560   -1.75096299932500    1.51313860518506
H           1.20769693978564   -0.42939357510824    1.70101740584252
N          -1.70174746513913    0.26015796581973    1.52741931142743
H          -2.07261674245635   -0.36889485065783    0.75202780662839
H          -1.38405498836357    1.15396695765505    1.05662739514915
H          -2.39585719586037    0.44864212964734    2.24094085004145
