    26
        -50.47229283  Gyration_radius:  2.4802400149 Dipole_moment: 1.994
 S           0.96490595168745    1.19678060714072   -1.68249421738570
O           0.12602960814555    0.00321249826590   -1.73684227554832
O           0.18950564434529    2.38761308561719   -1.39426238736604
O           2.10548932307387    1.01102673863101   -0.80901223009063
O           1.55013654997719    1.40461348637514   -3.14055754287320
H           0.82369057113834    1.83926844893540   -3.57441138741964
O          -1.80463539199848   -1.78322899939901    1.01228787151397
H          -2.62097398495343   -2.24257055346149    1.20987553037868
O          -0.74305719949847    2.11100339825589    1.00551565696027
H          -0.72505404680096    2.96929315636334    1.43189522928913
H          -0.34564331952897    2.24597072171932    0.10737372082464
O           0.30865640263791   -2.44669500418330   -0.63763528538129
H           0.21503685822661   -1.68286430803738   -1.23912120129309
H          -0.48939583900447   -2.42303329526430   -0.07945794488069
O          -0.07616621861231   -0.15026103678073    2.39954496588074
H           1.21080511964316   -0.64680998652205    1.60085908665244
H          -0.30822528610866    0.70288525838174    1.98617723924417
H          -0.75054168563624   -0.78036839123999    2.08740484360731
O          -2.22280915220592    0.28285916500186   -0.51961462733384
H          -1.43431758734939    0.20269011975326   -1.09610396134323
H          -2.04655678791594   -1.02106196006959    0.41090685835199
H          -2.03362103527928    1.04451469128569    0.04535287990343
N           1.89291920375563   -0.98692713728907    0.85982464231172
H           2.75728250498321   -1.32866117332361    1.26295600689840
H           2.07150383087677   -0.17898041837434    0.19892242970472
H           1.38503595641091   -1.73026912176700    0.29061610937555
