    26
        -50.47229283  Gyration_radius:  2.48024215908 Dipole_moment: 1.994
 S          -1.22002637883842   -1.15139591352056   -1.54270404517002
O          -2.48169620541264   -0.61813915344737   -1.06711723277622
O          -0.22162898346870   -0.10194303900318   -1.72481028156389
O          -0.70664026520709   -2.24744583926496   -0.74677750869833
O          -1.51728085401739   -1.74690129276413   -2.98098030387849
H          -2.13487432777011   -1.10995839772823   -3.32416048102487
O           1.54170270252258    2.09530553405141    0.83281107705182
H           1.86434745935430    2.98105942568587    0.99944960162836
O          -2.05093733874729    0.31835474342991    1.30829870804266
H          -2.82330776804490    0.13362298623355    1.84502930192414
H          -2.23381351498675   -0.08574887061581    0.42171192358303
O           2.34849833819046    0.16661040684813   -0.97235581378184
H           2.25563666501547    0.93866989177043   -0.38559042299966
H           1.50434636480691    0.12219960709018   -1.46168212571901
O          -0.75889597066844    2.13587477509723   -0.39033174278864
H           0.67178177156593    2.19679220500992    0.34902162838504
H          -0.61533343494333    1.38433498782396   -1.00276162118654
H          -1.38605322570382    1.79892572265808    0.26408624004107
O           0.46651767427425    0.07226989484415    2.35885225332921
H          -0.46395783803691    0.14441658505697    2.07326079426007
H           1.07640701969394   -1.08742231965606    1.45130258043120
H           0.91115513109386    0.85734902570347    1.99109041266549
N           1.43020063847021   -1.68356130794984    0.64532866679705
H           1.98003407307235   -1.03738846056411    0.00143637122226
H           0.58512221963852   -2.00275616850431    0.09263213705764
H           1.97869603815740   -2.47312500827574    0.96495986318116
