    26
        -50.47229292  Gyration_radius:  2.4803489988 Dipole_moment: 1.995
 S          -0.44218984751102   -0.01389635228171   -2.23590709702838
O           0.92865296830537    0.29562327643779   -2.59296178824364
O          -0.51690315427776   -1.09233715863068   -1.25476640796585
O          -1.21836258790595    1.13843442864259   -1.82597491407572
O          -1.12082627549844   -0.55958881605850   -3.56000179284525
H          -0.40921929023673   -1.06192675762653   -3.94229051811554
O           0.57712622376784   -1.19292605034387    2.38818328636171
H           0.98081497734334   -1.74397144184027    3.05887101628986
O          -1.84032651287093   -1.40014169201415    1.06858278012916
H          -1.07737668817825   -1.47207587886210    1.67004526223433
H          -1.46235409996651   -1.49886664518167    0.17338137079325
O           2.06588060110796    1.24006646675485   -0.46697318050803
H           2.66506395989593    1.93828953066717   -0.73568747247079
H           1.62163215205887    0.92944430575836   -1.29705132300958
O           1.74944093368276   -1.49072444342869    0.08017222538606
H           1.06809995280439   -1.37753660958410    1.53613066437251
H           0.95609208026457   -1.46320597551885   -0.49455159790129
H           2.19164674326130   -0.64506077734970   -0.07629778776981
O           0.55156712055940    1.49640272427228    1.80069759370860
H          -0.92525102669786    1.46506289134007    1.20163418796107
H           0.62119693365277    0.60418530377275    2.18584427708345
H           1.13510808793365    1.48675044105535    1.01839655954359
N          -1.83077207291718    1.19909614931108    0.71239116292615
H          -2.01845505099177    0.17668318352373    0.94464197560648
H          -1.65076523542417    1.23728728463714   -0.33047535904690
H          -2.59952088216671    1.80493263255810    0.97396685655976
