    26
        -50.47229319  Gyration_radius:  2.41206963988 Dipole_moment: 3.399
 S           0.32484320187741   -1.28998001852351    1.12561601976676
O           0.99449770789367   -0.77094554675281    2.30550721831164
O          -1.03836259409701   -0.79590313492048    1.01831195531855
O           1.09019270834180   -1.10231462998573   -0.08810840554957
O           0.21723083158997   -2.86446319105658    1.32389004582633
H          -0.04244015685155   -2.94098940493927    2.23613388551786
O          -0.80666965238853    1.70591112317371   -1.74887462330118
H          -1.18817304981655    2.13942982529751   -2.51300177917149
O          -0.05325606160135   -2.80703602164975   -1.78796705978943
H           0.50333705698815   -2.22789853910757   -1.23416323748243
H          -0.23540825696114   -3.57989300033959   -1.25079709365425
O          -1.35847554149603    1.88040293893801    0.94072658442558
H          -1.46404504911919    0.91809682606348    1.06883547217144
H          -1.29813590407018    1.99323596142192   -0.02646178455640
O          -1.78578587284317   -0.70197763304026   -1.55661066006395
H          -1.26974130042948   -1.43978710421859   -1.92750497567474
H          -1.66242192014866   -0.78441297404018   -0.59219176781855
H          -1.16544834210337    0.77164103829180   -1.75415105522344
O           1.78787161268891    1.33397707853017   -0.95996605293706
H           1.58047695351013    1.69579756586636    0.56054074741871
H           1.72702129103270    0.36953415416710   -0.83108769272872
H           0.94334412416727    1.57412717805363   -1.38639779253898
N           1.17832388288961    1.74719957277172    1.55161522531550
H           1.66191428760877    2.42223450119737    2.13350065813709
H           1.21825087202696    0.77840540680658    1.96333433978633
H           0.14105918131501    1.97560803798961    1.42927181850931
