    26
        -50.47229327  Gyration_radius:  2.4120978288 Dipole_moment: 3.399
 S           1.66012208052617    0.19099200979232   -0.49396922370832
O           2.54054867603957    0.10124383583466    0.65794241061601
O           1.00113981625846   -1.07558206132048   -0.76888252891527
O           0.73635135133565    1.30207649777266   -0.41504473283168
O           2.58897877869379    0.49553247313119   -1.74863409999245
H           3.32583082903684   -0.08972763376936   -1.60731052207846
O          -2.50149962289482   -0.46336416088077    0.38455642439359
H          -3.44514329128944   -0.59485727038785    0.28640505022598
O          -0.09474403721072    1.57135792532896   -2.93303009698898
H           0.20755994294247    1.63291258519795   -2.00751181433478
H           0.69687355525586    1.42484081350438   -3.45354724219995
O          -0.47998681927173   -2.13103007687847    1.22202450307532
H          -1.32754569978141   -1.70260639793015    0.99852434715324
H           0.08375882435208   -1.98197466294848    0.43872542041742
O          -1.04493298438787    1.52469185542753    1.57505316249965
H          -0.00931695010018    0.59078091790151    2.31061418721894
H          -0.46901299155190    1.71226488701127    0.81114243928630
H          -1.71974945719458    0.91309307617282    1.22371261771905
O          -1.36637427899649   -0.64527905377156   -1.95474044129055
H          -1.18378732387078    0.17691919324959   -2.44338851669792
H          -0.49291172727976   -0.92515337821958   -1.62171394181696
H          -2.12269706620129   -0.48203265321210   -0.54159732710761
N           0.69498416754776   -0.18915533926537    2.51608780026858
H           0.23349790243114   -1.09056445611905    2.17315875289769
H           0.95543571698062   -0.23055563488168    3.49517046404885
H           1.53262057862979   -0.03482329073442    1.89625290813974
