    26
        -50.47229308  Gyration_radius:  2.41198782877 Dipole_moment: 3.382
 S          -0.39030571852126    1.07878051733623   -1.31219903363828
O          -1.48338260616943    0.42211725639123   -0.61358506844397
O          -0.23393019168816    2.45988348183290   -0.89016178887832
O           0.84541093474340    0.32762095744749   -1.25939624980642
O          -0.79998283663852    1.11958706178790   -2.84847982879282
H          -1.44550793243802    1.81832305848543   -2.87190918374689
O           0.29429100513412   -1.82239733937523    1.79039256804744
H           0.35377776578416   -2.65003881102947    2.26878563835435
O          -1.34349754898286    0.36965374119727    2.07857326835789
H          -0.85233164853107   -0.46828807928755    2.17009312402002
H          -1.63253552472833    0.38347895904337    1.14584021423246
O           0.32593005700355   -1.79742423610238   -2.78122195354153
H          -0.17508892233160   -1.43989263464809   -3.51627546022664
H           0.66071166682483   -1.02365004223704   -2.29026187209204
O           2.20065165590180   -0.01325144232640    1.02762629012900
H           1.67060920835920   -0.74778777374349    1.39161711806919
H           1.95047594636381    0.02044855538421    0.08599603573948
H           1.40634034852818    1.28641927034631    1.43448586414570
O          -1.01205908075376   -2.21254218025512   -0.43095630426147
H          -1.33417696553400   -1.29589639687710   -0.52157108247385
H          -0.49915917162599   -2.36721810187027   -1.24404260221721
H          -0.15917590061207   -2.03662634819579    0.92417992524220
N           0.62470953151307    2.00757350185333    1.55922298777364
H           0.33988202342866    2.33945252720213    0.60079587649511
H           0.89856438091446    2.77914826902042    2.15740229290396
H          -0.21022046594657    1.46252623861879    1.94504920460743
