    26
        -50.47229324  Gyration_radius:  2.41212272639 Dipole_moment: 3.397
 S          -0.40294837833066   -1.24871629741796    1.14657428732485
O          -0.99163919019388   -0.66467192145532    2.33924294898193
O          -1.25977111000227   -1.08003146059106   -0.01589729683961
O           0.95639636173199   -0.81037772379237    0.91383252562636
O          -0.30807552026452   -2.81435957286304    1.41080132859771
H          -1.14826024263520   -3.00695107109999    1.81386121112779
O           0.49747580755745    1.58076110636078   -1.96819126862253
H           0.75979853113793    1.96158589861406   -2.80695252541947
O           1.88705501737675   -2.62214101043898   -0.80539176097069
H           1.69255111781329   -1.96602414625706   -0.11012785688196
H           1.52047401278698   -3.44952369203512   -0.48902442783638
O          -1.92746220877427    1.44813067916441   -0.67473930093766
H          -1.17580782462658    1.63391063610615   -1.26826667198493
H          -1.89938451463350    0.48144317840155   -0.53928747833766
O           0.22480107107881   -0.99631606248675   -2.24873319678190
H          -0.41778720959155   -1.10968225405468   -1.52321598164384
H           0.46558118407716    0.59097988553261   -2.11266388346133
H           0.97169365243305   -1.56877528812170   -1.99866669083126
O           1.56963294160919    1.77220112806981    0.54279155841747
H           1.62501120977226    0.81379854366311    0.71249811824330
H           1.32606770857618    1.83645190071646   -0.40027962611242
H           0.21118151472836    1.97714247590509    1.31642006700561
N          -0.80214622450225    1.86996074824183    1.64534024191951
H          -0.89950600494019    0.91258444499288    2.07411040337553
H          -1.39376130778692    1.85831755307432    0.75494488974454
H          -1.08117042440598    2.60030235176958    2.29102035630676
