    26
        -50.47229258  Gyration_radius:  2.4119509292 Dipole_moment: 3.372
 S          -0.25604741896391   -1.71527823254517   -0.17552697565194
O           0.85003430050714   -2.45118544817708    0.41175161237035
O          -1.02784676201139   -1.00674043345996    0.83269149143811
O           0.14949227589835   -0.86691970513446   -1.27546349320158
O          -1.23366520352530   -2.79787663231230   -0.80946679614646
H          -1.27369396921579   -3.46303191779656   -0.13018236751414
O          -0.01269468604385    2.55343073090922    0.30288666005973
H          -0.22780398192480    3.48667257489326    0.29129775485768
O          -2.14941835667715   -0.34214960142287   -2.51749339678029
H          -1.24585516021350   -0.54395549866752   -2.20964097163326
H          -2.62277049850299   -1.17550234614336   -2.49233955360950
O           0.31687905621758    0.76031289580782    2.36293790380396
H           0.19776997786461    1.54514028504731    1.79570034190665
H          -0.31017064303693    0.10252652886287    2.00551978459167
O          -2.15767629627200    1.17657304598415   -0.24144394632030
H          -1.88169199735173    0.36774278096442    0.22946276931345
H          -0.84809619823599    2.07436264653940    0.03020918190071
H          -2.29448029504297    0.88403541707273   -1.16007024838233
O           1.93503236248191    1.10773557817133   -0.96538862800571
H           1.34096219494501    0.43754911915278   -1.35048276249129
H           1.33192523075118    1.77937140643729   -0.59396166815620
H           2.35863947027730    0.22883913204511    0.27327720738194
N           2.32076949534374   -0.39176821967817    1.14502187488114
H           1.63661213185918    0.08932471936121    1.81099371115927
H           3.23465145906851   -0.53633043854769    1.55985073320350
H           1.86914351180658   -1.30287839735805    0.86985979102327
