    26
        -50.47417160  Gyration_radius:  2.42099697496 Dipole_moment: 1.966
 S           0.64220857402816    1.86772344576236   -0.32804196646641
O           1.58129601543185    1.19577332785433   -1.21310513893782
O          -0.72564274558346    1.75415826806385   -0.79729639880436
O           0.78111061264037    1.47186107683111    1.06352265266237
O           1.03993409793545    3.39941388981766   -0.38037577387269
H           1.39381151256014    3.47427467526709   -1.25971605433715
O          -0.75685517135052   -0.12408684536208    2.45775003946441
H          -0.72063675657430    0.14711296549130    3.37603265122893
O           0.53214741227276   -2.20629456765002    1.14922898211051
H           1.37958377525343   -1.73191970709817    0.98399514807720
H           0.06244811502375   -1.64883103392876    1.79255412408399
O          -0.11962508766141   -0.14949275106721   -2.66618077070261
H          -0.80443261276774    0.52295106059918   -2.57083443740239
H           0.65334179758091    0.26676613154248   -2.22351207815665
O           2.53863622661317   -0.50759423567075    0.70093599708646
H           2.69985079623777   -0.30078181632420   -0.22562302350729
H           2.02550479983860    0.25989383913725    1.01336314101505
H          -0.18941602112813    0.51426037472987    1.96261300303921
O          -2.46318763429577    0.07076119837333    0.31209911420630
H          -1.95066401271677    0.80060604062943   -0.09742486821180
H          -1.79091481514587   -1.16513547580664   -0.41645354208189
H          -2.11519281693980    0.00214883464823    1.21642442179651
N          -1.10159449744503   -1.84327685185135   -0.86815598244638
H          -0.38596242459194   -2.09079136008855   -0.11275543053408
H          -0.63911918813195   -1.30621365228779   -1.65166743885519
H          -1.56662996110463   -2.67328683157982   -1.21737637020103
