    26
        -50.47416999  Gyration_radius:  2.42082469839 Dipole_moment: 2.008
 S          -0.49719986393084    0.18655825305547    1.93000408563015
O          -0.80277509699123    1.55186190938465    1.53103433758493
O          -1.38978602276620   -0.77425429094851    1.30955053241769
O           0.90152313251054   -0.16487199864259    1.75134363141404
O          -0.75401547607790    0.13656704007816    3.49144776094575
H          -1.46542141962993    0.75971698964795    3.58958977446291
O           1.97843715302942   -1.64345649877492   -0.12194169302134
H           2.76194543417286   -2.06279201244095    0.23646885167125
O           1.74189878421884    0.58554977612512   -1.75920995531369
H           2.02428480811424   -0.24139951019193   -1.33284770841979
H           1.78788240279057    1.26058537808578   -1.04312838980230
O          -2.41721092289891    1.04588336642283   -0.45631078757445
H          -2.73229510883597    0.22846917567411   -0.05279702137147
H          -1.83488278292927    1.41969885630811    0.24231796935940
O          -0.62174297301718   -2.28454359088170   -0.74288569940053
H          -0.75042980945439   -1.06263788934265   -1.74365470220751
H           0.33649356161845   -2.34160458673136   -0.59486362428986
H          -0.97594761324576   -1.86757949792324    0.07178902186755
O           1.66639507349572    2.05061996504655    0.46784684227176
H           1.58684270218162   -1.11970694265379    0.61761673730892
H           0.83874113278933    2.51844992408874    0.62139753148900
H           1.58743766604924    1.26685865450735    1.04154460063551
N          -0.75291245982681   -0.09261278148113   -2.18851470724904
H          -1.04293100195006   -0.12609187403387   -3.15903181276074
H           0.24489889760488    0.28206862992510   -2.09633907501940
H          -1.41923019707904    0.48866354557221   -1.61042651052476
