    26
        -50.46272418  Gyration_radius:  2.48180640288 Dipole_moment: 6.104
 S           0.43187089473073    2.29926867818322    0.00579940688830
O           0.13424499104302    1.82199026524120    1.33373845741312
O           1.83010912683587    2.39143883354340   -0.32810058667388
O          -0.34541551033073    1.54069749633626   -0.99386182540510
O          -0.12519046216071    3.78979958942755   -0.08951389759637
H           0.57337912397369    4.20885753783385   -0.58115590109828
O           0.87640658760482   -1.85220222989352    1.17901873292513
H           1.52133652617203   -2.43830201639274    1.57732270336208
O          -0.83222656639423   -2.41304486542047   -0.80486085569732
H          -0.87581180255940   -3.35357509681761   -0.97962248890588
H          -0.18339573732674   -2.28551035639032   -0.07316495926049
O           0.67107174020886   -0.54994903796271   -2.40378974959010
H           0.08828990596014   -1.23929224682309   -2.05916828617881
H           0.30309245788109    0.29374886957731   -2.08738424799239
O           2.27082030199826   -0.23169567912333   -0.24843368220382
H           2.23182670472848    0.74020642025397   -0.16974732651166
H           1.41847785296506   -1.15693042947664    0.68753228601073
H           1.92362336205261   -0.41832241059393   -1.14556333421991
O          -0.99484547785164   -0.28225876519434    2.41991591265792
H          -0.55791190806852    0.58414706070284    2.28226660377964
H          -1.75004596998788   -0.19320176989395    1.08430484377755
H          -0.30396767858708   -0.93207169911540    2.19608638080097
N          -2.04523191438327   -0.10822105816613    0.04763207862305
H          -3.01459098876305    0.16877457534114   -0.05449946085707
H          -1.85498999979722   -1.01171657937416   -0.41064177997710
H          -1.39092554994412    0.62736490419792   -0.38410904407002
