    26
        -50.46272415  Gyration_radius:  2.4819467151 Dipole_moment: 6.105
 S           0.26299439701458    1.93553577711143   -1.28805653406742
O          -0.54390831527266    2.19334495102375   -0.12081642018382
O           1.66345083382597    2.24895578304193   -1.16321162193338
O           0.02613870010160    0.56324276459140   -1.77759364982015
O          -0.28100450921766    2.88256821436051   -2.44909804889974
H           0.53621578483824    3.15369013040693   -2.85402401214235
O           0.39306202755291   -0.54582348244655    2.26654393968794
H           0.83850630723322   -0.59193572185114    3.11362579409729
O          -0.28005827101502   -2.57922577546696    0.65883315487703
H          -0.19467224201639   -3.42429941014295    1.10112675288476
H          -0.01035529145100   -1.88626958505539    1.30648088502578
O           1.65558369630095   -1.53511588350212   -1.19924753474538
H           1.14305916054979   -0.81303304858492   -1.60324402737588
H           1.02013920155699   -2.06368947504463   -0.69884779539858
O           2.17060583161003    0.36832653838295    0.64993269964747
H           2.04927838939683    1.16095745992714    0.09377604373526
H           1.05368128795980   -0.10511301919365    1.64366049707156
H           2.24722044850925   -0.36990777513432    0.01018448712687
O          -1.90988466950868    0.79328817831611    1.62736588472423
H          -1.50374739287830    1.52928845963912    1.12346378864343
H          -2.03115374626495   -0.09045267027593    0.37597087656744
H          -1.15491522152150    0.37117833865152    2.07632787710843
N          -1.86303852225332   -0.67611804562879   -0.51727481492407
H          -1.12835461217073   -0.13681634315945   -1.08721173689802
H          -2.71103604339517   -0.80706334581469   -1.05631119704334
H          -1.44780717948521   -1.57551302415149   -0.23235527776504
