    26
        -50.46983305  Gyration_radius:  2.43233070698 Dipole_moment: 4.331
 S          -1.21501565600851    0.33518110965828    1.62603498583069
O          -1.17488935923717   -1.08586220129351    1.89775121192163
O           0.03048214118243    1.03137370034397    1.82481415847520
O          -1.77599803010823    0.60235295541175    0.29138185964973
O          -2.25137568824480    0.94642702057529    2.65617167702911
H          -2.87147592202460    0.23235481362106    2.76074078030382
O           1.71810014165603   -1.08675460984444   -0.49643873733978
H           1.86609145207113   -1.31897416254105    0.44360898832112
O           0.18417071604143   -0.50035413189812   -3.04184761306405
H           1.08305479851629   -0.73577697140177   -2.78758554817000
H          -0.38878861306052   -1.09364298289144   -2.53157774049595
O           1.48126284407579   -1.35952160903804    2.17131243653772
H           1.66641764342555   -0.47888204413000    2.50881580587754
H           0.50726487097576   -1.40763781301804    2.14832742390971
O           1.81843983190336    1.55141394266016   -0.08742500819018
H           0.65888889068579    1.79904964640788   -1.04233808867993
H           1.30360211935340    1.51729297457664    0.74302633255063
H           2.00108524033864    0.60380116992909   -0.28930651784204
O          -0.98079523661072   -1.65206942174314   -0.81844834004833
H          -1.37341213964750   -0.84346813560969   -0.42525396138052
H           0.79013106625210   -1.33878451871328   -0.64908408624079
H          -1.10515883309054   -2.32643419535450   -0.14511757357195
N          -0.27652357140736    1.70805397471453   -1.58488542231323
H          -0.97083450083051    1.37836515531762   -0.86592077608711
H          -0.15420378210290    0.94348501218829   -2.29589303383556
H          -0.57052042408546    2.57901130208379   -2.01086317312407
