    26
        -50.46983303  Gyration_radius:  2.43236548838 Dipole_moment: 4.336
 S          -1.22914833829705    0.28059504104547    1.62584646533989
O          -0.66892885663949    1.55123691047256    1.24214910795732
O          -2.33840920493074   -0.17204799045885    0.81378646232388
O          -0.19123409175732   -0.75838753358348    1.72905473408779
O          -1.80519874347283    0.45715716664811    3.09069894047623
H          -2.46970965826958   -0.22282861974554    3.12558580404789
O           0.01719633944142    0.38181187530560   -2.05773263550725
H          -0.79319649514380    0.92692291012708   -1.98266770982304
O          -2.16847789527521    1.65884405360008   -1.14153713051753
H          -1.80967978493859    2.37702349465335   -0.61316847958945
H          -2.38360115243923    0.96594036690828   -0.48950711912113
O           1.95042776218348   -1.87941580440434   -1.48384738578874
H           1.07373200494809   -2.23419197334326   -1.26888224561782
H           1.79742061168816   -1.23004582372331   -2.17878803361104
O          -0.66810705985194   -1.88339234823704   -0.60618914930014
H          -1.62426872250658   -1.87614958486409   -0.70281938906392
H          -0.22471210310784   -0.44753854891930   -1.60873949587909
H          -0.51549807366355   -1.55540094422354    0.30581398753675
O           1.44096496395327    1.87479367036545   -0.36026532136724
H           2.06397909895690    0.64459043847865    0.28505629609762
H           1.01505851923538    1.45402465013888   -1.14362253887943
H           0.70236730244102    1.99698336225397    0.26855154898804
N           2.21117176034109   -0.34516532294671    0.70479933042275
H           1.32661264137301   -0.54203567738689    1.24010006906807
H           3.02624094459280   -0.40119417228801    1.30395267922638
H           2.26499819113814   -1.02212959586167   -0.09762879151610
