    26
        -50.47399127  Gyration_radius:  2.38945204899 Dipole_moment: 4.401
 S          -1.21968391649980    0.58783432547395    0.47783034921758
O          -2.74338155793607    0.53171723804978    0.21090002604731
O          -0.71409847641292   -0.79315007330566    0.42886211800590
O          -0.61522349608044    1.36188786095541   -0.62529586092767
O          -0.98646732304475    1.21055957645683    1.75014195917652
O          -0.48456523495962    0.03474236334165   -2.85801289029431
H          -0.67145006766410    0.61231822100810   -3.59940702988836
H          -0.54636694914577    0.59527470557549   -2.04289719380500
O           1.41226836937040   -1.20354524325733   -1.17088111192278
H           0.98738695411755   -0.99076873505910   -2.01334035116908
H           0.67340442382068   -1.26656975386577   -0.53420362260254
O           0.61981621148089   -1.50167638640831    2.64751046261570
H          -0.02119916289072   -1.57614713968597    3.35645920537796
H           0.10403946254821   -1.32102491585279    1.83663061372248
O          -2.44175360666224   -1.36125098299014   -1.54555568646309
H          -1.83883395159817   -1.69552233776612   -0.86610031378024
H          -2.83186663677918   -0.14202456885575   -0.51148570778353
H          -1.86092645923687   -0.99795208194269   -2.23875794410752
O           1.56045077113212    0.99343313752295    2.49161392321685
H           1.48118484702568    0.03775911818839    2.69974549360936
H           1.94504433037944    1.07362959163435    1.00996518971230
H           0.62614299412989    1.27532273653571    2.40550127088185
N           1.93839508195309    1.13766769603641   -0.07031302833804
H           0.96475390331347    1.44989059888009   -0.32334873779756
H           2.01415911504581    0.17460763451863   -0.49897449229328
H           2.64877035456257    1.77298739479927   -0.41658664041418
