    26
        -50.46999925  Gyration_radius:  2.46311354082 Dipole_moment: 2.905
 S           1.60059783966370    1.36544490797413   -0.69361506771116
O           2.48721216882821    1.42966101443408    0.44274257851658
O           1.41001190934842   -0.00725233050628   -1.19281149897948
O           0.32974189476104    2.02234106294679   -0.51679990123822
O           2.37205942904144    2.11540890478797   -1.86925540714837
H           3.08995641227126    2.51271990312758   -1.38796207854078
O          -1.84413591261489    0.03893435298664    1.73085653955640
H          -2.24922058951382    0.19091929725870    2.58548348497944
O           1.44553241545122   -1.93803764289653    0.58631820068643
H           2.28428305929497   -2.40008641896804    0.56371667868373
H           1.49980872855545   -1.22972835752422   -0.09989386723821
O          -1.28956163896714   -2.26617520313627    0.33364003647863
H          -1.61319910174197   -1.57431239764964    0.93987475617848
H          -0.34111012215038   -2.35675641159074    0.52452872797250
O           0.74199804674736    0.27488890982899    2.08980910116323
H          -0.87686640232048    0.23556891585078    1.84994180419662
H           1.03533987181217   -0.61856444272382    1.85264950093614
H           1.33829244622544    0.86579042442956    1.59439823754415
O          -2.24885473285502    1.43737602432995   -0.59635107253658
H          -1.68298593352558    0.22101415105789   -1.39455709521962
H          -2.32001616080709    1.03979829239764    0.29043537811994
H          -1.38792007792946    1.90118355997512   -0.57886333764657
N          -1.10240543647777   -0.62005688461957   -1.72352607673583
H          -1.32983922638086   -0.90034372546791   -2.67005888357970
H          -1.25849001432717   -1.40168078682369   -1.02200826188563
H          -0.09022885232858   -0.33805512946249   -1.63869247655768
