    26
        -50.46999159  Gyration_radius:  2.46206756367 Dipole_moment: 3.181
 S          -1.91839691133271   -0.87179470460113    0.67899636219469
O          -1.72891180543791   -0.22681555058308   -0.63407952697739
O          -1.66304590529875   -2.29113143140758    0.63546533566879
O          -1.21699756584945   -0.14478262948285    1.70511171171047
O          -3.47783813418322   -0.73727882391183    0.97711361987592
H          -3.74028798018539   -1.65167328134147    0.97414101283347
O           2.36307490876737    0.17968758013189    0.89483899307400
H           3.17797605256159   -0.11764131193317    1.30116065791602
O           0.17185575567053   -1.20617703450562   -2.15616099663956
H          -0.58949031710022   -0.87265688424737   -1.62206653789879
H          -0.20300400725333   -1.74872376646992   -2.85080550822009
O           1.76582194137737    0.99870109482486   -1.66275913004794
H           2.17586648075685    0.74201109632561   -0.81597408073017
H           1.35514597126606    0.18910203451220   -2.00924130880074
O           0.47869322251786    1.87238393233357    1.95253776483560
H          -0.18271619416382    1.17495540525339    2.12997729608457
H           1.29156767281535    1.37715007347083    1.74370589123939
H          -0.05533988099186    2.13654859518940    0.50793565489588
O           0.97135506205763   -1.98083911360677    0.37529741919179
H           0.05756686344759   -2.15681235887959    0.66468786031712
H           0.91104536716239   -1.92157163344462   -0.59090395180542
H           1.79493900167133   -0.63082204254882    0.80092497477269
N          -0.37357178641480    2.03570894402858   -0.51208573208143
H          -1.02129829946293    1.20443269206495   -0.54667616558702
H           0.48376950599872    1.77588500998688   -1.08224544420032
H          -0.82777903835551    2.87215412888155   -0.85889618162673
