    26
        -50.46999243  Gyration_radius:  2.46212890822 Dipole_moment: 3.161
 S           0.38668793025924   -1.78499087784718    1.25130723011878
O           1.76696147298233   -2.09046016833490    0.96293263387426
O           0.21383397111449   -0.42394499550521    1.79313212766925
O          -0.54030130258515   -2.02219164027620    0.17520357388249
O          -0.01335697475117   -2.75401717821477    2.45121823632267
H           0.81548653561977   -3.19258493058969    2.61132963987348
O          -0.17838919694660    0.51450337353016   -2.47351288870550
H           0.06784115948020    0.49493822293657   -3.39903332125827
O           1.83487338295586    1.42085623226906    0.86680851711110
H           1.26468039720721    0.72340418604760    1.27252686647150
H           2.52131025669530    1.61381877356228    1.50627296795150
O          -0.21417216049126    2.54167061837880   -0.61383568504666
H          -0.19162057657932    1.98080351683358   -1.41132674933214
H           0.61032732854913    2.34956402435993   -0.13690500850910
O          -2.32292150790985   -0.71450184765210   -1.27985706286251
H          -1.69695145100764   -0.30575500287013   -1.90496952057943
H          -1.79775432118052   -1.41496246484026   -0.84514671352149
H          -2.17919022208087    0.26785045346077   -0.07325611592777
O           1.86061056854124   -0.46967931990617   -1.15108860994083
H           0.54944462642593    0.04132717900093   -1.98885666675647
H           2.10179136108211    0.29578270947838   -0.60642340577222
H           1.82988660517357   -1.21401586739167   -0.52280406012538
N          -1.80005187734176    0.89591181660874    0.71013675641994
H          -2.53141873205933    1.22392781404584    1.32961598105455
H          -1.27698260138035    1.69428749975693    0.24470469043617
H          -1.08062464176719    0.32845789317177    1.23182659722252
