    26
        -50.47000847  Gyration_radius:  2.46305361232 Dipole_moment: 2.593
 S          -1.36627162386251   -1.53498351018264    0.83139174291244
O          -2.19018485940129   -1.87939869859893   -0.30052599183884
O          -0.00296681612871   -2.00320566344520    0.74101108771978
O          -1.41430118375940   -0.10646987140910    1.17277656649739
O          -2.02765876978810   -2.25036152157741    2.09211474943505
H          -2.30294200136842   -3.07992832164226    1.71659372774153
O           1.84317245475837    0.11067702457776   -1.71686669576952
H           2.28607428067730   -0.05466279235220   -2.54993554264252
O          -1.76223756885464    1.59950469775904   -0.79821177309728
H          -2.67016658621682    1.90341160320747   -0.82801421555520
H          -1.70635712006562    0.96708261451231   -0.04270431565148
O           0.87273353908160    2.41764058337565   -0.57363180110069
H          -0.07340278285163    2.32384893974611   -0.77401004039521
H           1.32132327427785    1.73228930603082   -1.10290177391991
O          -0.65340363795408   -0.60551859182504   -2.05215386030533
H          -1.14992762062897   -1.23560676652673   -1.49687449923850
H          -1.10364536100070    0.24257638382421   -1.91677570525019
H           0.92571558357777   -0.25995028294468   -1.81842598635921
O           2.42377569820952   -0.95389241436375    0.74471823724439
H           1.65810665399582    0.23060743044652    1.40910701240487
H           1.65065425523558   -1.55359587228823    0.77588524179781
H           2.44606879940521   -0.64552323650751   -0.17934597527351
N           0.93784673991816    0.99084100456913    1.64779392657897
H           0.96937035524066    1.70930908590069    0.86654166865684
H           1.09755558648116    1.40410798803276    2.55875443002343
H          -0.00893126896585    0.53120089165810    1.59368977533141
