    26
        -50.47001089  Gyration_radius:  2.46307090397 Dipole_moment: 2.614
 S           1.00793850279151    1.92991006330054   -0.41406404731466
O           0.36704150712387    1.90623793793313    0.87964866016336
O           2.40554121863617    1.57547002299828   -0.39515585524414
O           0.22925598064340    1.17024288664389   -1.40270115875051
O           0.94548626702980    3.43034521866066   -0.94686421928283
H           1.74799510156355    3.79161911753274   -0.58589332675091
O          -0.17129502532468   -1.63180516789421    1.91643335172560
H           0.13397299872487   -2.17705526845136    2.64243467693997
O          -1.21860737603415   -2.26941297230227   -0.54645902169610
H          -0.43369203136720   -2.14250276802653   -1.10483087336578
H          -0.89292329331285   -2.24201943801664    0.37243795496009
O           0.98946430703060   -1.29616882841066   -1.90412461516667
H           1.47756635808923   -1.34011497661083   -2.72715428623722
H           0.73895213749963   -0.34957432774679   -1.78042645203717
O           1.97248870079618   -0.83264558155147    0.64125551504379
H           1.82743212909334   -1.24117009488590   -0.22620883902291
H           2.20969772911351    0.09145123214777    0.43806010943331
H           0.64718281484793   -1.24731535428488    1.50234382254671
O          -1.66225000748284    0.66864860712235    2.03734310146066
H          -0.92592136801019    1.27277156826906    1.81147173730919
H          -2.07150981198726    0.45132569630037    0.54883521415193
H          -1.22227607481803   -0.18160036752580    2.21914215332024
N          -2.06707971710251    0.23132045750841   -0.50256171012707
H          -1.22152412076331    0.71498529130924   -0.90456029262287
H          -2.91823494420562    0.52855394000768   -0.96443674403644
H          -1.89470197260016   -0.81149687403908   -0.60396485539867
