    26
        -50.47001075  Gyration_radius:  2.4630262944 Dipole_moment: 2.607
 S          -0.86331520544082    1.97283283964204   -0.52321370379511
O          -0.48087262236480    1.88707471932163    0.86656221625452
O           0.14038877384766    2.54686312864437   -1.38470003072944
O          -1.37882418043959    0.68497984277685   -1.00936760056939
O          -2.12170547158565    2.94656730387601   -0.60912925223516
H          -1.69871359360374    3.79325361037447   -0.70502849914013
O           1.98286679385966   -0.87665006389831    1.28976627707739
H           2.89420701282065   -0.93101481985582    1.57970409693256
O           0.28374282720949   -0.85800510759107   -2.33877297535176
H           0.12224319098726   -0.79816645397717   -3.28104644614731
H          -0.36994624070722   -0.25787477247030   -1.90670863868603
O           0.41832180540347   -2.59342474424115   -0.18502806208962
H           0.46291301330138   -2.16230250228623   -1.05454818832065
H           1.09581501871632   -2.15230060964682    0.36046623099541
O           1.96535565716419    0.70749712370605   -0.79605877199295
H           1.65192988981517    0.09705323849793   -1.48132448869793
H           1.41325733051455    1.50373339079458   -0.90885238065509
H           1.96788601262103   -0.19369348356916    0.56689504469162
O          -0.19412707451222    0.00965869257324    2.70568502654171
H           0.67560480374665   -0.32913414499654    2.42585417426162
H          -0.28495034364064    0.85636118573179    2.22292513625718
H          -1.11921964131915   -0.76585408220017    1.71925644871548
N          -1.56922403362464   -1.18801600017412    0.83995950097167
H          -2.48243743789938   -1.58557233623379    1.02464035977145
H          -0.88754361871195   -1.90334427799220    0.45140936613330
H          -1.62365264615377   -0.41052166680813    0.13065515980091
