    26
        -50.47001092  Gyration_radius:  2.46315117728 Dipole_moment: 2.617
 S          -1.96867970332021   -0.55122928217761    0.85630200903764
O          -2.84219987053404   -0.51064945949214   -0.29030140486473
O          -1.03572097822034   -1.65327406493633    0.85904248931766
O          -1.28050534003933    0.72318984198818    1.10770414167465
O          -2.91919241917033   -0.73109299287311    2.12242437201211
H          -3.61573236910947   -1.26767728487572    1.75957715837984
O           1.65837325337882   -0.98396322044835   -1.62701879406348
H           1.96224817185197   -1.41511356258402   -2.42661354974631
O          -0.67924099878522    2.20545017672136   -0.97893587232336
H          -0.96451549710844    1.69514693766329   -0.18376468019742
H          -1.30144914205352    2.92767309505981   -1.07282992786734
O           1.99922409493904    1.57473465429644   -0.67509856609771
H           2.03742021749098    0.71746233284086   -1.13859404402332
H           1.14177938762108    1.96304148118542   -0.91602161593642
O          -0.84832184547605   -0.34580795731969   -2.03900843740491
H           0.68186707959936   -0.84033687883016   -1.74976379480448
H          -1.60383290894501   -0.58799861913779   -1.47148236155518
H          -0.79963309269889    0.62070692419343   -1.97686958536265
O           1.58462499437164   -2.00072724938141    0.92057740388836
H           1.77193378378508   -1.81949027996573   -0.01838289378712
H           1.52659290667228   -0.54413882849501    1.47332745716061
H           0.61316705393842   -2.11691992659705    0.95016077011186
N           1.29634108791000    0.49334294909492    1.62957933018805
H           0.24869510994413    0.58029175779704    1.55676156653885
H           1.70147741281500    1.03141950481186    0.80864650493380
H           1.63527961117624    0.83595996143983    2.52058232478184
