    26
        -50.46272410  Gyration_radius:  2.48203497327 Dipole_moment: 6.103
 S           0.69562013166200    2.09115981889033   -0.78636135889705
O           0.38444043310089    2.14267432967891    0.62087803991602
O           2.08436987188285    1.89332321369657   -1.11400947198720
O          -0.19474155096999    1.13232924168159   -1.46968197559531
O           0.31395430191308    3.51160786034069   -1.40071428685814
H           1.04155232609593    3.64681222323810   -1.99872834183498
O           0.69203171217308   -1.42243781212570    1.75768567903680
H           1.27644374769282   -1.90726844011502    2.34205248966896
O          -1.13196406924592   -2.42397193015530    0.07207097889133
H          -0.44997169967035   -2.13090805676309    0.72126994951234
H          -1.29041943242398   -3.35454118577719    0.23325502535661
O           0.52680446197530   -1.42237010306987   -2.05707678666696
H           0.26967499170078   -0.48363052244997   -2.05650220730029
H          -0.12103537256638   -1.87500957681497   -1.50118032011947
O           2.21974461403993   -0.57454496386361   -0.12788746038825
H           2.29630122334131    0.36212852377002   -0.39082594363877
H           1.29561941408334   -1.01048869610925    1.06148418321076
H           1.82503747242452   -1.01598367255160   -0.90862418846424
O          -0.94425216698017    0.69201746242267    2.35683257014794
H          -0.34063286068388   -0.07267947919958    2.37933373545143
H          -0.41469051656065    1.39901752385924    1.93233629661085
H          -1.72580951040253    0.40446534705483    1.06478769768766
N          -2.04144697712081    0.16112348023563    0.05979601731261
H          -2.97485446773623    0.49972185698236   -0.14248294876076
H          -1.97179256444650   -0.86091795810453   -0.05483894216303
H          -1.31998351327836    0.61837152524886   -0.59286842012936
