    26
        -50.46632955  Gyration_radius:  2.51147187324 Dipole_moment: 2.604
 S          -1.50493090827310    0.34656120510613   -1.41192800947498
O          -1.40048075429469    1.65938235833069   -2.00357685068975
O          -0.38346918246410   -0.52743725903360   -1.63504892107870
O          -1.85584831408116    0.40850750598031    0.01637354227671
O          -2.76009264489294   -0.34276614155342   -2.11153724234843
H          -3.31597995761562    0.40579010450114   -2.30205657409939
O           2.37247945867959   -0.65969276876673    0.29415049880609
H           2.90677258071801   -0.50781461667138   -0.48657302375881
O           0.94800708674680    2.81283011649472   -1.65498815925850
H           0.77137616204735    3.75505964638403   -1.68144620794524
H           0.11378213001535    2.37620697680928   -1.93698915243981
O           1.00785469722218   -0.15036207626348    2.81195850014091
H           0.87018074297847    0.65423044987966    2.28497504111028
H           1.80982829446837   -0.54279242451934    2.44843004613410
O           0.56177633445860   -2.58645649457699   -0.29088704661350
H           0.17536910182546   -2.00834077236049   -0.98208063743869
H           1.38672682837483   -2.11545168696553   -0.05553259614084
H          -0.35893791024959   -2.10872732410952    0.85317568604131
O           0.59160886833814    1.36224213239958    0.56308630501843
H           0.85789541745533    1.97616622095852   -0.15397998384873
H          -0.32364123690769    1.10640188868629    0.35347950720612
H           1.71179370240074    0.06974009659821    0.30175985914610
N          -0.92800994505189   -1.51506750777927    1.55099281743901
H          -0.24440941179918   -1.03426730989009    2.19157371879393
H          -1.60557777133235   -2.06418689582131    2.06676339808368
H          -1.40407332879876   -0.76975542383278    0.96990548495100
