    26
        -50.46632997  Gyration_radius:  2.51121348995 Dipole_moment: 2.615
 S          -1.50280748759489    1.29763907705579   -0.66431851776932
O          -1.50618479292003    2.53803261212295    0.07442661743519
O          -0.30163509707100    1.01833577180770   -1.40614554610062
O          -1.88928170901521    0.15195941153940    0.17544186379280
O          -2.67366029702832    1.43047207333485   -1.73728307801794
H          -3.30210902870503    1.97922940107219   -1.27941616674620
O           2.41734123512606   -0.53338986603371   -0.15158830913189
H           2.95469786710160    0.21063773182905   -0.42670310339317
O           0.95466279807616   -2.34622006253855    1.58938393182558
H           0.75238943202595   -1.45794317159366    1.92697520337134
H           1.79778289216002   -2.24484179192134    1.13303017323670
O           0.72580735545559    3.00543091333529    1.40267632416003
H           0.46959612861397    3.56874246001171    2.13525172276981
H          -0.06167597604058    2.95362566920438    0.81673431494156
O           0.44622450131530    0.34686878140124    1.48241886938585
H          -0.43639259090923    0.33783736841327    1.07259196663845
H           1.69010286789215   -0.14358795683388    0.38492697041514
H           0.67164400355592    1.29554382506627    1.58805674621674
O           0.80948015179009   -1.22845924006934   -2.21664870151866
H          -0.17673696116485   -1.92291149578735   -1.25295108905046
H           0.38435274312372   -0.34571657403396   -2.18038236363561
H           1.58077869217793   -1.11869871683338   -1.62433019297717
N          -0.81492880547965   -2.17349410467843   -0.42023378856663
H          -0.19428411697670   -2.39495693313738    0.40107491078819
H          -1.44779425175178   -2.93620268221046   -0.63089911426439
H          -1.34736956421097   -1.28793250974041   -0.19208965369286
