    26
        -50.46633016  Gyration_radius:  2.51096310089 Dipole_moment: 2.625
 S           1.81029115114911   -0.75176173074557   -0.73051920683363
O           1.77535737894419   -2.18702869067331   -0.88229800655687
O           0.86633352003777   -0.01794336698687   -1.53161148873506
O           1.74245769800251   -0.34252989745438    0.68191294612899
O           3.25934334046346   -0.30088998608255   -1.21704477498025
H           3.79232850881445   -1.05233555388982   -0.97805433170022
O          -2.30029340673256    0.67140096708796   -0.63225329212121
H          -2.60066186831589    0.26667639793629   -1.44717087901792
O          -1.74593769780695    1.02211443667902    2.20192117404191
H          -2.38094511809917    1.26110049459828    1.51707002468632
H          -1.52524799130905    0.09427907020453    2.01617272668641
O          -0.65688155778765   -3.21160160640785   -0.89703216444891
H          -0.55351616290373   -4.10935003927012   -0.57602175557764
H           0.25421325182312   -2.87341271585606   -1.04421695906800
O          -0.82425573214530   -1.12089739548472    0.76200314025214
H          -1.72505529379313   -0.00318685211135   -0.20498017071352
H          -0.92477830601328   -1.93705939749919    0.22739545722980
H           0.12964790178411   -0.92833670617232    0.75793481473027
O          -0.25842862840283    2.34538582250277   -1.23374220626787
H           0.26214054075709    1.58357533804625   -1.56539837960204
H          -1.14969244357991    1.95903134792979   -1.11491505391124
H           0.26194114069556    2.27806123869463    0.21878005198322
N           0.56394788457492    1.95062400100054    1.20097080983507
H          -0.30705619658803    1.68593652677256    1.73033512037579
H           1.10690971042162    2.64955781694230    1.69424999739202
H           1.12783836598504    1.06859050024194    1.04651240617055
