    26
        -50.46850918  Gyration_radius:  2.45197993802 Dipole_moment: 5.043
 S          -1.58411494778846   -0.80437610755787   -1.06289084381707
O          -1.13580830329989    0.33204942141071   -1.85833794726289
O          -0.59396456473831   -1.87299531147799   -1.07039234368644
O          -2.02190857969303   -0.42188627787521    0.26016203990399
O          -2.85768332718786   -1.38463523888780   -1.80110511924223
H          -2.50794633045380   -1.59202500121106   -2.66099311578333
O           1.18862237342507   -0.38902716468103    1.86389700321774
H           0.58440475675410   -1.13862469586995    2.04472037360036
O          -0.70363082754673   -2.31107440748095    1.64164160702801
H          -0.44837756625627   -2.68342484162717    0.78904426614025
H          -1.38781889487878   -1.66620954902659    1.39695922672219
O           2.50493890992532    1.63236990456503   -0.31106165284782
H           2.66435929947926    1.52590422342432    0.63131934600002
H           2.37444882068467    0.72964907996811   -0.65637580627891
O          -0.79675115815166    1.41127468638511    1.80955487353467
H          -0.40445102336504    2.09436523639763    0.49167207160503
H          -1.45586447349577    0.79573219119797    1.44093400569660
H          -0.01997780676642    0.83783592728248    2.00802561585110
O           1.81286443915133   -0.94460051357830   -0.81554300974263
H           2.38247071250719   -1.64130122799466   -1.14587134907860
H           0.88490909494893   -1.25591050849682   -0.97329623853357
H           1.52060640081064   -0.57241948825057    0.97181027935513
N          -0.08007076200249    2.31407116503846   -0.51402835307402
H           0.96225396458907    2.20248875450409   -0.53795564788287
H          -0.36622610321244    3.23773965142881   -0.81698640692874
H          -0.51528409343892    1.56503009240899   -1.12490290449859
