    26
        -50.46850970  Gyration_radius:  2.45256061654 Dipole_moment: 4.978
 S           0.04677011128492   -1.82033807164536   -0.98913111458264
O           1.42347914712661   -1.58573439238807   -0.57173128987272
O          -0.81095237087179   -2.09954484450829    0.15374620872066
O          -0.45748864199393   -0.77878199622648   -1.85566058006720
O           0.06570686411240   -3.14564449972032   -1.85384355611625
H           0.38979338579128   -3.78395437610968   -1.22752309753980
O          -1.45763665160806    1.58383108572442    0.64411647878970
H          -2.15481150043673    1.07588179951537    0.18037660190070
O           1.44009695013273    1.61142306062988    2.08067008756091
H           0.94089490525369    0.79007216630446    2.24602544339432
H           0.77517013356111    2.29780381300240    1.97227903754968
O          -2.82197567541673   -0.35952752672745   -0.65530779452649
H          -2.69079784207983   -1.11547092250097   -0.07331105211546
H          -2.10692037602179   -0.45524386730737   -1.30823647274397
O           0.02411044143168    1.86153470147767   -1.57462093190218
H          -0.23266768289369    1.00165049314349   -1.95270029406846
H          -0.56028580287372    1.95928645238424   -0.78714702996876
H           1.36333070312485    1.41946141199032   -0.96544773222176
O          -0.27791594375628   -0.49287952131538    2.11546596037711
H          -1.06464407135618    0.93405473211250    1.24682479226730
H          -0.62402698203663   -0.93125880287726    2.89462761489609
H          -0.41405011980082   -1.12685554768892    1.36522142803438
N           2.14644997102102    0.92425511126507   -0.41239802250314
H           1.93484725316944   -0.11241407954299   -0.47885645629817
H           2.05641842436013    1.21973772280767    0.58971563191684
H           3.06710535076598    1.12865588821591   -0.78315387088689
