    26
        -50.46272378  Gyration_radius:  2.48225641541 Dipole_moment: 6.092
 S          -0.62310862342699    2.25069061560818    0.14995688128990
O          -0.35664203528943    2.77012830855563   -1.16702919129887
O          -1.77241603975564    1.38667537184513    0.26249601069173
O           0.55739029874197    1.60866061142396    0.76061013679006
O          -0.90926291881603    3.52872132339921    1.05854666219091
H          -0.56976453777518    4.22118658426269    0.50136938671581
O          -0.66345673803583   -1.81477211206292   -1.36201186306567
H          -0.90381714711548   -2.30470470613285   -2.14956962706556
O           1.42983858458837   -2.24856685361992    0.25028791600238
H           0.67852553004189   -2.15710123328137   -0.38202279137667
H           1.84445108140370   -3.09320490109935    0.07209391514595
O           2.45126862960241    0.28203885503051   -0.66999245900177
H           1.92964644542060    0.89388087567397   -0.12144140148135
H           2.31291620850046   -0.59637746751906   -0.29217490051984
O           0.25811249977056    0.41626608277925   -2.24454711963180
H          -0.07532099603642    1.29154617828720   -1.97035298777508
H           1.17902651001184    0.38987350563309   -1.91080046721427
H          -0.38306826597150   -0.90298243384134   -1.69251678575080
O          -2.23828942960004   -1.14318676899945    0.77711534723368
H          -0.95975987168934   -0.90114435372805    1.59474594405125
H          -2.34371730825828   -0.18977987859736    0.57582218062760
H          -1.86419804434958   -1.51664169594974   -0.04156191843895
N           0.02297840102445   -0.62514279959086    1.95143712133423
H           0.70018071718797   -1.30041555270802    1.56675275661005
H           0.06675383483596   -0.58258296505929    2.96290704488575
H           0.23173318498863    0.33693538969061    1.51988020905094
