    26
        -50.46272420  Gyration_radius:  2.48158444146 Dipole_moment: 6.119
 S          -1.63981050458930    1.64854228797854    0.25589062010159
O          -1.96454890592120    2.03586300852906   -1.09292080977167
O          -1.79053482481579    0.19815860264119    0.48562149655823
O          -0.36170905776113    2.09971479928741    0.74832577123673
O          -2.75615107866760    2.32471307564066    1.17128638878163
H          -3.41562977678271    2.53764355734576    0.51939021860876
O           2.13469592881307   -0.06909856236418   -1.01606175941862
H           2.82048272874082    0.06830962067387   -1.67096674751941
O          -1.30486125053068   -1.67693639123271   -1.42255563655004
H          -0.56364035108198   -2.12015291084419   -0.98934875972074
H          -1.67878193204605   -1.07122101742588   -0.75880513515967
O           1.16599534130320   -2.40511814125817   -0.13611438977924
H           1.71671742499236   -3.14078851355722   -0.40530308848037
H           1.57964202410359   -1.58714793063884   -0.50005916209117
O          -0.04375125463827    0.57737885610963   -2.21887102958036
H          -0.53488915300415   -0.27028807757679   -2.19558112036244
H          -0.68106397782511    1.23733844656505   -1.88670200092838
H           1.28616643179207    0.26622399718634   -1.44715426292360
O           1.91514759119790    1.02595991967033    1.48630801018007
H           1.19546394997564    1.66212419776857    1.29175430699637
H           0.92342971270366   -0.09240219842786    1.84644201385124
H           2.21172728489939    0.73098349214396    0.60626023960675
N           0.13956856938259   -0.83666067299846    1.86273409968489
H          -0.69677038804630   -0.39344582422994    1.35298450321827
H          -0.11570449340766   -1.10523365217487    2.80587615980493
H           0.45880998121487   -1.64445997887453    1.30757006367758
