    26
        -50.46272412  Gyration_radius:  2.48181415289 Dipole_moment: 6.117
 S           0.41996428329199    2.09996187501126   -0.94223735625117
O           1.61277790998220    1.90015709159943   -1.72467776418849
O          -0.66167387986279    1.16148552704015   -1.30061918751274
O           0.60385393777418    2.12402045206522    0.48788672846637
O          -0.12863144229096    3.53565277780058   -1.36513933189858
H           0.34701595766800    3.67537286485883   -2.17725996606040
O           1.22450861481169   -1.46224848288208    1.39803647581705
H           1.96497054886722   -1.96425697982116    1.74126362990602
O          -1.07526295384964   -2.41576773740161    0.41257552076111
H          -0.20963068180482   -2.14082583858418    0.79696174139726
H          -1.18525928837827   -3.34674498659522    0.60802245064077
O          -0.21717772448900   -1.38711172928477   -2.13667489085887
H          -0.44634097236708   -0.44669124247949   -2.03443617801655
H          -0.64578807210927   -1.84568408108882   -1.40214373255219
O           2.03745980138347   -0.58703065179922   -0.87836775448295
H           2.03409578046400    0.35362868338851   -1.13777177747733
H           1.56303070524972   -1.04017318835564    0.54608197237601
H           1.39706366200827   -1.01092937461770   -1.48705582542712
O          -0.08362935606439    0.65304289336438    2.54836515915607
H           0.28227162076837    1.36340809363834    1.98084596097947
H          -1.25878004943014    0.39762586926489    1.59079703161796
H           0.48124611765628   -0.11690167474767    2.35426485299381
N          -1.89799886237205    0.17655288508281    0.74740460291471
H          -1.43240874180717    0.64047069638614   -0.10320942209760
H          -2.84006118554700    0.52660138308969    0.87709605386134
H          -1.88561576957986   -0.84361513493489    0.59999102594791
