    26
        -50.46272413  Gyration_radius:  2.48171689394 Dipole_moment: 6.117
 S          -1.68846594280243   -0.61719704153001   -1.49703786702291
O          -0.24418260119059   -0.89865429328280   -1.61661537922572
O          -2.40440147128222   -1.66053839001540   -0.80879984865138
O          -1.89468658446543    0.72015847998828   -0.99849915839624
O          -2.23478063263844   -0.64503424165587   -2.99436226522379
H          -2.65167107885106   -1.50009485461805   -3.01566144963860
O           0.02897460823393    0.81602737024167    2.21958742637998
H          -0.19121388642165    0.89484737653106    3.14878701169655
O           2.40563813845878    0.19161759730353    1.15649680161785
H           3.10741231750109    0.23815301427919    1.80640233843650
H           1.56704471499152    0.42448761370007    1.62044034243637
O           1.17727131715514   -2.25486426498795    0.26305944114131
H           1.77444736198534   -1.54039561664294    0.52084253847268
H           0.70902777304789   -1.93874431296078   -0.52951922156508
O          -1.07449316127113   -1.38505610748622    1.47993836775631
H          -0.29305662614081   -1.90880319546420    1.20574883657631
H          -0.47317419108816    0.00233501856806    1.89669947959644
H          -1.69582538080680   -1.46446721723892    0.73171829415066
O          -0.47621462365139    2.58221383528517    0.18620432739149
H          -0.36608287304398    2.13647269801135    1.04568195594246
H           0.59908545935354    1.86828803483487   -0.64931291481320
H          -1.20329503635296    2.08690943631110   -0.24555248988261
N           1.25195545555533    1.15596317279670   -1.13405289399279
H           1.70587442130985    1.54542858505540   -1.95203183011337
H           0.62869513433040    0.32277676527865   -1.40415189047945
H           1.93611739809302    0.82817054770667   -0.43600994258292
