    26
        -50.46173132  Gyration_radius:  2.49807222972 Dipole_moment: 7.261
 S          -0.80063011284757    1.99901180176675   -0.97496056570280
O          -2.08777635199001    1.76843187339906   -0.31098894353112
O           0.28851093930519    1.87540608304599   -0.00480652126231
O          -0.61015738241631    1.19760454102705   -2.14811101354796
O          -0.81864688477829    3.51618651788857   -1.42455247469068
H          -0.99516754157239    3.95575908341025   -0.59965142138074
O           1.76734365493156   -1.46611148921985    1.15854402921240
H           2.56686903814870   -1.95516005642971    1.35456587352248
O          -0.43681478162062   -2.37801019712557   -0.03070249705808
H           0.39984542391827   -2.10248418763185    0.41700660778144
H          -0.43615467691235   -3.33567499102762   -0.05496752679004
O           0.64625925560219   -1.15379386279004   -2.41448222871355
H           0.13097758697296   -1.65145802115763   -1.76657619318571
H           0.15838846364910   -0.31985163326345   -2.54200758378569
O           2.24497359287840    0.18394689300316   -0.72734449993944
H           1.84661018077992   -0.29652803278799   -1.48750909569140
H           1.62283538587232    0.91409563628053   -0.53862397465950
H           2.02091331245654   -0.80381073409862    0.42376592098071
O           0.29833252223869    0.55290948621977    2.30836093865678
H           0.40017894234618    1.19477897074829    1.57345761881741
H          -1.04373436540878   -0.01934750051428    1.77502497639610
H           0.94228117720339   -0.15079303978613    2.11438853223390
N          -1.85489866292205   -0.33317898714477    1.14184588622351
H          -2.69023835167038   -0.55555331165176    1.67174232005897
H          -1.52971635457852   -1.14704075663499    0.59507725310452
H          -2.03038399959594    0.51066594448739    0.49150459297070
