    26
        -50.46272421  Gyration_radius:  2.48176930996 Dipole_moment: 6.105
 S           0.00502712207983    2.02010140924372   -1.17973650902519
O           0.08204954248767    2.24598669771140    0.24261497196230
O           1.26255978907282    2.01393777992305   -1.88228708206284
O          -0.81340764264505    0.82452747034428   -1.46163063964864
O          -0.82007322656894    3.23485265950874   -1.80039253761416
H          -0.32281958601884    3.39968046647712   -2.59475262951063
O           1.42086806597479   -0.97603205296568    1.61927828320580
H           2.22979252294690   -1.25248154701831    2.05208969285560
O          -0.53548164224971   -2.53650421014516    0.66643014593278
H          -0.44708561085374   -3.44020410234470    0.97051928754023
H           0.21825889556105   -2.02864523726432    1.04930582528881
O           0.24277906577544   -1.63203788027072   -1.95404270339798
H          -0.19658229674178   -0.76395516791288   -1.98037999862313
H          -0.12205488536185   -2.09068089088038   -1.18587152643656
O           2.17011501954922   -0.19847961942762   -0.71398578457999
H           1.97556839791892    0.68096307082639   -1.08925179175634
H           1.71340672024561   -0.58563506247209    0.73591641119125
H           1.68368800118970   -0.82380175276292   -1.29066871395881
O          -0.40135487060896    0.89832205327603    2.44037381507747
H          -1.42163924805401    0.27371692153178    1.47553954076708
H           0.33263762553665    0.26141130430919    2.36835353274914
H          -0.16452657925470    1.60462331969712    1.80338397297565
N          -1.93640424527451   -0.18159241734182    0.64079456462155
H          -2.93934771982731   -0.04435098407897    0.68681393359847
H          -1.68727731052049   -1.18170393249708    0.62281045055032
H          -1.52869591435501    0.27798169453277   -0.24122451169989
