    26
        -50.46173125  Gyration_radius:  2.49835075198 Dipole_moment: 7.281
 S          -1.77309372138896    1.51022579226298   -0.41129048705250
O          -0.34749833830121    1.83268078361587   -0.33124660775511
O          -2.04993286931075    0.78423643782390   -1.65520896709538
O          -2.27368135517381    0.85225629290756    0.75962909242199
O          -2.52944149110085    2.89339457805784   -0.54836863240334
H          -2.16992713265773    3.22544154371880   -1.36418336377490
O           2.36850704648460   -0.63544414833945    0.77756572809748
H           3.15527137565009   -0.76522242246036    1.30764163064409
O          -1.00465427406546   -0.81901173462818    2.42524666699204
H          -1.64016010738049   -0.24543425729822    1.95946499875092
H          -0.72736993647440   -1.47337236628580    1.77112503040816
O           0.36830460421528   -2.35634788853077    0.39987419707699
H           1.14481772695992   -1.76828776789113    0.56568435887451
H           0.61638102452344   -3.23343516246446    0.69460189293709
O           1.69582976998808    0.64359132974411   -1.56092949474521
H           2.16286164077151    0.25148741862514   -0.80220193780709
H           0.62025398621580   -0.41915842494986   -1.91936130461581
H           1.05133161859664    1.26673844392642   -1.16273885144152
O           0.85205348788776    1.05405030290820    1.94122387094014
H           0.38784011418165    1.47875888826589    1.19296726474649
H           0.18663701180569    0.44937911171446    2.33992447485528
H           1.81521994004896    0.06719472788989    1.27021963907215
N          -0.26181141244844   -1.03463997520015   -1.92853765920152
H          -1.07910854274298   -0.33616917009576   -1.82646020463106
H          -0.21835545345727   -1.65828950426735   -1.10629089389706
H          -0.35027470282472   -1.56462279905313   -2.78835044138331
