    26
        -50.46173137  Gyration_radius:  2.49830180626 Dipole_moment: 7.276
 S          -0.79609560640167    1.19859434684163   -1.87682673360484
O           0.23834579982056    1.63055745527805   -0.93553671981742
O          -0.27409987619614    0.12853560758884   -2.73327052646792
O          -2.03949879773922    0.87037591288786   -1.24370718081517
O          -1.05435951500559    2.42708371434928   -2.84022872660380
H          -0.19904520006718    2.53513249868985   -3.24235388490447
O           1.11618518799115   -0.21572121769333    2.30769267873060
H           1.31801500467844   -0.13100033959145    3.23984868052370
O          -2.47284806471070   -0.15385978479697    1.19375992539553
H          -2.54095386865987    0.21415524557321    0.29391187193751
H          -1.93063233257000   -0.94795915780553    1.10224921408043
O          -0.34593859547018   -2.10899600841545    1.13180560047002
H          -0.48995818549148   -2.84458285430713    1.72834728310384
H           0.19711614316135   -1.44491883096980    1.62207530170012
O           2.37446439572090    0.28372506632152   -0.08466488822965
H           2.15102388059265    0.16103807788316    0.85479016015765
H           1.67135750445243   -0.90991046293493   -0.78837104622453
H           1.73053941268863    0.94841825019593   -0.40996312431463
O          -0.51797029582989    1.62623275456092    1.64079404654674
H          -0.29470385707358    1.78342029607501    0.70206386666440
H          -1.35901631082547    1.11683335359196    1.61785176918876
H           0.48718505844812    0.55828117271352    2.08890753372866
N           0.94256360582996   -1.56222250381634   -1.23605309021165
H           1.37348705260752   -2.32272645130961   -1.74979481006111
H           0.38173234668294   -0.92321362698986   -1.90187062905035
H           0.33310512329576   -1.91727252390319   -0.48145655187289
