    26
        -50.46173119  Gyration_radius:  2.49805672764 Dipole_moment: 7.252
 S          -1.13132368242916    1.89351911457984    0.84950958947984
O           0.15251858055946    1.36345934037389    1.31143855919797
O          -0.96250024258014    2.54072055039283   -0.45559764371550
O          -2.18832189958593    0.92565546786387    0.87591932156417
O          -1.51467863309648    3.05436354767467    1.85451730720520
H          -0.78890517759256    3.65721548207930    1.73329561754645
O           1.65744593365698   -1.96274245317276    0.13615470849997
H           2.10583113152244   -2.76742658839039    0.39744081857376
O          -2.07230415693784   -1.72985694119714    0.54021589930428
H          -2.33633724345409   -0.80449765219941    0.69424716717276
H          -1.65909244514301   -1.73268084401544   -0.33281425563759
O          -0.25228186311567   -1.69654147958982   -1.70449788241932
H          -0.30554374732758   -2.48084406373331   -2.25200803492811
H           0.46715707389217   -1.85544358028013   -1.04620263630120
O           2.28278460299819    0.69901269426558   -0.14486730956436
H           1.64924392728678    1.03210010913058    0.52607835706298
H           2.30419357399975   -0.26468644135444   -0.00927570234009
H           1.29851130628312    0.88175157885541   -1.33266635085795
O           0.10544728195451   -1.22560121258287    2.02174976211391
H           1.07685433089904   -1.69743130868612    0.93315787982010
H           0.08790627005442   -0.25342757738551    1.91975631143899
H          -0.75995243487002   -1.53183693576721    1.66862212273783
N           0.41318644936822    0.96275278391134   -1.93848640282168
H          -0.23081945068387    1.62973023446601   -1.38512858020436
H          -0.01097757271492    0.02309440566582   -2.00202059639112
H           0.61195811715603    1.33964175909963   -2.85853804656622
