    26
        -50.46116159  Gyration_radius:  2.44674903163 Dipole_moment: 5.239
 S           0.26476802021868    2.10420444582844    0.04096109054888
O          -0.21796621974861    2.33332565585772    1.40347126993524
O           1.41824802179055    1.21288964619185    0.04915276419743
O          -0.77456482971480    1.66522504323692   -0.85329869981226
O           0.77622884074455    3.50106217006001   -0.48806539205487
H           1.45608313053095    3.72770339379422    0.13874337783393
O           0.46478693981362   -2.43277384656257   -0.07576187189495
H           0.19386511731157   -3.26534086499053   -0.46420776540873
O          -1.36741924807567   -0.79391523543523   -2.83223669912292
H          -0.39711483228394   -0.72581198894178   -2.69203309247129
H          -1.64808213098821    0.11005327598693   -2.99167933031403
O           1.21911167718112   -0.54039975775400   -2.03169089775866
H           1.27094775261760   -1.32397681832068   -1.46660496204002
H           1.30413626242369    0.21189110300363   -1.42172205733980
O          -1.61385367426468   -0.73064523318601   -0.19941460683361
H          -0.31895713500283   -1.83449873047241   -0.11677045688298
H          -1.31808360022128    0.19315562065137   -0.38003472018623
H          -1.83493925507612   -1.01985810709161   -1.11176365051443
O           1.63368176578141   -0.80516007377717    1.77108934069818
H           1.75585696862601   -0.03783586486883    1.17034820745722
H           0.21277061984761   -0.44075227066500    2.23890735811172
H           1.48830108126379   -1.56228403065986    1.18084365862216
N          -0.77897141997497   -0.01356219177027    2.30268487360819
H          -1.18854007867474   -0.09832522415833    3.22634023714699
H          -1.36863086611150   -0.44886592052934    1.57998374290644
H          -0.63166288796166    1.01449579469968    2.02275830168593
