    26
        -50.46272428  Gyration_radius:  2.48156356678 Dipole_moment: 6.100
 S           0.86185832115802    1.48004119729685   -1.59287497481583
O           1.00122084514430    0.67779076206818   -2.78115031781235
O          -0.48839041696620    1.83118028371279   -1.22745248463462
O           1.57124574528299    0.90904761730105   -0.43118581357219
O           1.62726675402373    2.84208150311975   -1.90963271062608
H           2.13603837347574    2.58767139706583   -2.67245573625352
O          -1.94169743853204   -1.34444202414310    0.13200485829178
H          -2.63056943669000   -1.95308395766709   -0.13832932618962
O          -0.12843909126352   -1.68875893584044    2.07242020847819
H          -0.34440489033071   -2.43643983744261    2.63040260373176
H          -0.83172276348228   -1.63050157899046    1.38361075721836
O           1.85227487463356   -1.76318512433037   -0.01517630775960
H           1.34578286053160   -1.82425029000759    0.80541538702146
H           1.96188992185724   -0.81224667538495   -0.19122838324897
O          -2.15527066071865    1.32033380784959    0.73224900707023
H          -2.31716907882313    0.38205333396118    0.52485717900510
H          -0.80307407777625    1.22703280249739    1.45639222745396
H          -1.74418385062608    1.67480445410935   -0.08382199309281
O          -0.19698764354357   -1.46469971762170   -1.75270098038127
H           0.13130504422803   -0.69123142541394   -2.24875659252295
H           0.58766951001708   -1.79564413745673   -1.26795915081457
H          -1.29483888050100   -1.31565566093687   -0.64197568434051
N           0.21051368204541    1.01366409087362    1.76676617512191
H           0.80271371277722    1.03555628822039    0.86993938552000
H           0.23155927107954    0.05267602991266    2.13891837016155
H           0.55540932307522    1.68620579721152    2.44172430698264
