    26
        -50.46911886  Gyration_radius:  2.45477756006 Dipole_moment: 3.995
 S          -2.19736213943273    0.33327165915876   -0.27571288731939
O          -1.55174467435696   -0.94319264737431   -0.55030831141905
O          -2.76433287273359    0.43501049287437    1.03753955705536
O          -1.29102639438680    1.43700200998328   -0.61385627742163
O          -3.41100481433909    0.44668833158308   -1.29911037251550
H          -4.12671178687641    0.72319672785472   -0.73549489940593
O           2.43809064952756    1.03055658079269    0.51989774885405
H           3.11543436716835    1.59212254150872    0.89729126196740
O           1.86506493767954   -1.74441051851300    0.68603737306904
H           1.09959711412977   -1.72826667648564    1.27589795826511
H           2.23191934909991   -0.84833829333817    0.69971821273701
O          -0.63244905127768   -1.18902805836724    1.90704124584609
H          -1.39878197852262   -1.14487747681903    2.48393735136576
H          -1.00574454756613   -1.19401421707562    0.99921504767584
O           0.69603617897175   -1.82821515371189   -1.71655369525240
H           1.20727945825859   -2.00880524074836   -0.89253186760045
H          -0.23011733242738   -1.76414073987129   -1.42097505720445
O           0.15072999576302    1.40846231128121    1.66966976654808
H          -0.10951370966545    0.51575267270028    1.96917223931341
H           1.59273186505143    1.22446251042061    1.02720744592995
H          -0.47022670151978    1.61611127786280    0.95025857610435
N           0.97305607000551    0.74501162763613   -1.74677747761585
H           1.68680702931006    0.95208898386599   -1.02113286186458
H           1.18385167518200    1.21042875356819   -2.62195449068492
H           0.91621615063847   -0.33579929944632   -1.85964841209719
H           0.03220116231691    1.05892185065809   -1.36882717433051
