    26
        -50.46132051  Gyration_radius:  2.42874688863 Dipole_moment: 3.759
 S           1.77356666532590    0.23223413512054   -0.91060088105205
O           1.65809804536197   -0.77072629527629    0.14724316370875
O           0.84476144241486   -0.03791565073170   -1.99364941104374
O           1.69987738238709    1.57420521050671   -0.38435930990852
O           3.22212626212020    0.06590231554680   -1.52154457413503
H           3.15503802936608   -0.75591648604861   -1.99677548534302
O          -2.27227776026224    0.15954553906729    0.84178712817196
H          -3.00778539381695   -0.09911633694886    1.39729571241303
O           1.07169699139111   -0.26228894229279    2.67070454460757
H           1.48444826017461   -0.45789406118872    1.79947758944406
H           0.52244116160420   -1.02743916643338    2.85998482530025
O          -1.14367776798755    1.70470594611344   -1.25583715910627
H          -1.79204091014230    1.07552867717385   -0.92396270859619
H          -0.42355053449700    1.18563406577317   -1.64228150004928
O          -0.95697649259517   -1.99243442977551   -2.25167804864054
H          -0.25032697543756   -1.31519062386334   -2.23283983794763
H          -1.64360277757531   -1.63797056473799   -2.81882302833479
O          -0.74025833008767   -1.90216124842522    0.44734066042208
H          -0.96213600346348   -2.17800171057118   -0.46131411894912
H           0.17344314058632   -1.56087261677362    0.36427653654176
H          -1.71764583417524   -0.66248930697938    0.70412755735518
N          -0.15380855081735    1.75376854117671    1.44872019524106
H           0.28989787831324    1.08089236011537    2.12757561762116
H          -0.29105262057723    2.67907813663969    1.84064524601706
H           0.51567258092438    1.80496914452674    0.62332281367194
H          -1.05592788853808    1.34395335828614    1.12116447259078
