    26
        -50.46837080  Gyration_radius:  2.48040355023 Dipole_moment: 2.830
 S           0.21775994856363   -2.12880090175149   -0.69552334662409
O          -0.51478001827668   -2.12344776123671    0.54974198799078
O          -0.63302687610148   -2.04536850125801   -1.86469885881630
O           1.29119821273337   -1.13352199371301   -0.68954630848343
O           0.96634106901204   -3.52625423095871   -0.80189235581573
H           0.26267041439325   -4.09027644246395   -1.10343188386067
O           0.88254409178446    2.59224483092422    0.25859461580574
H           1.26656005605938    3.45142436334444    0.08321560624965
O          -1.84779059220210    0.22396295259095   -1.58830535383113
H          -2.70461174253759    0.15986326585004   -2.01366437824866
H          -1.42865636588504   -0.66881440613453   -1.67939927291117
O          -1.68398220285543    1.49400277664784    0.87004107986628
H          -0.90863979831522    2.05385419048219    0.72868682257245
H          -1.82551338351985    1.02345407822119    0.03089631524231
O          -0.79092064275592   -0.38436849959188    2.53947279333161
H          -0.86171090541127   -1.16421157991380    1.95406062772923
H          -1.30938860902392    0.31644909858861    2.08009573337803
O           0.70319921660658    1.18736641619762   -1.91819936464073
H           0.83423461243622    2.11718337068687   -0.62423246878408
H           1.04443858736254    0.31886046431541   -1.63010884285359
H          -0.24961336766538    1.04174304606318   -2.03230974306780
N           1.48838364205209    0.26471479516302    1.52575628481595
H           2.33169041200107    0.13050835120221    2.07107452356404
H           1.39861484570091    1.24372420287695    1.19222321437648
H           1.48545860856893   -0.36059360383870    0.67149469276918
H           0.58554078727582    0.00630169770631    2.08595788024603
