    26
        -50.46208014  Gyration_radius:  2.44292658736 Dipole_moment: 6.106
 S           1.18152294494703   -0.26140524253795    1.70640019035785
O           1.84749919011078   -0.04726316875228    0.41323655121688
O           0.87128325514914    1.00985652351725    2.33299009406935
O           0.05217572080265   -1.14550533334709    1.57967039053113
O           2.23740672720552   -0.96764944416519    2.64440202205723
H           2.66535535854993   -0.21891919683610    3.04584568224859
O          -0.79725803965862    0.41229188721471   -2.33545530657154
H          -1.48084950776913    0.42380143930517   -3.00583586861796
O           0.83439822718405   -1.78575467147012   -1.47088925068733
H           1.27273246431789   -1.31314065940219   -0.74460170378134
H           0.42763668680760   -1.10396524197871   -2.02052712514491
O          -1.07052654746763    2.24645410683007    1.06501962251585
H          -0.44943475340998    1.86173100853799    1.72539477772211
H          -1.70033723182490    1.54509994596556    0.85207973918747
O          -1.42862980695265   -2.89061921948965   -0.38005821309978
H          -1.14575030441105   -2.94557807778926    0.53739873676405
H          -0.60785768273673   -2.67720768840242   -0.86800476644213
O          -1.83649174537448   -0.28374315888604   -0.03394958845923
H          -1.12552489403711   -0.49560080064114    0.61319660599985
H          -1.24163748530581    0.14244913675803   -1.48043968743657
H          -2.11773204146379   -1.19073987005637   -0.27859257858015
N           0.73858841635907    1.96513651071238   -0.79993851235412
H           1.30072431153724    1.19301313250526   -0.32272562725972
H           0.25230231437263    1.53392047424763   -1.61159434075153
H          -0.01101104157916    2.25322984781212   -0.08893584344103
H           1.33141546466363    2.74010777033681   -1.07408601002758
