    26
        -50.46630149  Gyration_radius:  2.51387690025 Dipole_moment: 2.586
 S           0.83527164898706   -1.04211024274815   -1.37302277948980
O           1.98558809802461   -0.15585242996458   -1.47285582608496
O           0.52028448359900   -1.32206385144074    0.02044471206452
O          -0.31427915499970   -0.58620847682435   -2.12346745916320
O           1.27196876438226   -2.41401628200452   -2.02844775475011
H           2.10556832964264   -2.58431711617475   -1.60275954901331
O          -1.29429239455035    1.54161628651553   -0.79901077489865
H          -1.08894405139364    0.89259718277677   -1.49715093502244
O           1.44262892680422    1.79216496498127    2.46411511375318
H           0.85338998341598    2.31077631637209    3.01434898948306
H           1.19236810608997    0.84326065713505    2.61311785133676
O          -2.57060913750810   -1.84923261873114   -1.35384519197065
H          -1.75046073621938   -1.43781069294579   -1.68646139171246
H          -2.94553965262275   -2.33094871109230   -2.09167735207757
O           0.52326382817175   -0.66987045735679    2.65196029876472
H          -0.43904992258125   -0.61092244971197    2.65464482549265
H           0.73669086397245   -1.03580452646955    1.77695205233922
O          -1.84734706366763   -0.43462867355437    0.90242893209017
H          -2.51448160118514   -0.92402116422231    0.40425855981576
H          -1.00560932420356   -0.82732007854659    0.59162263509526
H          -1.65724982934280    0.98529438712079   -0.07029864643554
N           1.20567849938620    1.99074611637870   -0.19371784588285
H           1.60632170508347    2.84314709300450   -0.57128834342219
H           1.36180348963423    1.93995892712668    0.84612050904809
H           0.15312832480351    1.93619684722550   -0.40231343690715
H           1.63390781624233    1.14936898317271   -0.67369715245613
