    26
        -50.46630199  Gyration_radius:  2.51428297909 Dipole_moment: 2.597
 S           0.59717129652276    0.51499522585222   -1.74590080110884
O          -0.74811083934864    0.81214123944588   -2.21565162907430
O           0.81815770386305    1.08346332525854   -0.42401114798134
O           0.93712805754457   -0.88939099335563   -1.81293641905132
O           1.58728697668894    1.25433085462769   -2.73337564736182
H           1.22673321950120    2.13436408425868   -2.75895628580575
O          -0.47635994374834   -2.10620963565761    0.12644549720610
H           0.04363614105132   -1.93578229442042   -0.68068670858676
O           3.10466246058181   -1.46188355826940   -0.31198243503625
H           2.36394208071590   -1.25058778068599   -0.91130278331540
H           3.79821076983255   -1.82592836677267   -0.86308929878204
O          -2.59692249905307    1.20650681788953    1.78547253840595
H          -2.78610264326781    0.77043586627989    2.61789749454060
H          -1.69148924533545    1.60147918787383    1.88243818564964
O          -0.07664854507415    1.94846163951780    1.98466967296110
H           0.39309965805910    1.23568982218174    2.43280137811826
H           0.22858191287464    1.89202386827567    1.06337868093651
O           1.24370855515698   -0.66169465959625    1.56216806952828
H           1.15693169098402    0.00158009798714    0.84673234551157
H           0.08671664424082   -1.73130746836977    0.84378599145097
H           2.07610539583357   -1.10369716607305    1.35125976875928
N          -2.28100119531171   -0.29585856212380   -0.40627655945815
H          -3.15538134833037   -0.64174757982145   -0.78769606954011
H          -1.74914811515619    0.23545870672922   -1.15237063716890
H          -2.46163406577929    0.32161288351236    0.42683337271842
H          -1.63927410309688   -1.10845552453687   -0.11964659353014
