    26
        -50.46211428  Gyration_radius:  2.65509781174 Dipole_moment: 4.132
 S          -0.40812476384041   -0.14233444790087    2.60865909942801
O           0.30067367212204    1.10032964111924    2.82509638054601
O          -1.30265644229112   -0.03348424711396    1.44178695878039
O           0.42765177110839   -1.31636370611215    2.52201525147116
O          -1.35231425320329   -0.35009928109982    3.86945312934181
H          -1.57870502679929    0.54226201747678    4.11336612057607
O          -0.47049890023028   -0.01794370725372   -2.69468131611991
H          -0.88431326212262   -0.32956233209639   -3.50028835078960
O          -0.42651049468975    2.64094283664258   -2.08976219254938
H          -0.53849899040229    1.71021247642142   -2.37390906737895
H           0.15634350555712    3.05237248219417   -2.72927349040262
O           1.10189206855331   -2.37756531202840    0.26265156439315
H           0.84153486059693   -1.97910984766206    1.13625064599397
H           1.62850592799646   -3.14808912361721    0.48020403978049
O           1.86238839739835   -0.21161557644547   -1.17609063920736
H           1.72171227769387   -1.04636269216607   -0.68613824197608
H           1.23992849823994   -0.23546226295341   -1.91980310596850
O          -1.32708827122683   -1.55450623432116   -0.76711946212870
H          -0.55183520872861   -2.08686334825278   -0.52916068157727
H          -1.51957892251989   -1.04109378143158    0.04092402974220
H          -0.86666246136002   -0.56978699981319   -1.95935832053442
N           0.40189843671201    1.50824311670461    0.21667926788643
H           0.08906460720766    2.22200550646624   -0.46755326383252
H           0.76281183292063    1.87188392414989    1.10551232613454
H          -0.41359660707903    0.91693394827755    0.53384889571773
H           1.10597773926842    0.87505696104675   -0.26330956767836
