    26
        -50.46211407  Gyration_radius:  2.6550527443 Dipole_moment: 4.136
 S           0.72424027954068   -1.93950684477846    1.64506521096731
O           1.03742839493454   -1.62538140860106    0.23897571522066
O           1.36861393954358   -0.99659331083009    2.53331757018533
O          -0.69709189885921   -2.09520962883241    1.84458378876242
O           1.38048456380195   -3.35686639778999    1.93597520194890
H           2.27616611195032   -3.13148388199947    2.16831335360221
O          -0.38202121679063    1.43076220286828   -2.29970536054816
H          -0.58815877923964    1.53959704609637   -3.22869681124062
O           1.85176212735901    2.56773006768966   -1.22488986396907
H           1.70387319611933    3.51427233552932   -1.23774864833264
H           1.10698516243747    2.16318915496218   -1.71598369754476
O          -1.48263274042659    1.62227898479037    0.25701744590241
H          -1.32794451178663    1.74140160840667   -0.69327239822859
H          -1.95417966810459    0.76977959871734    0.34373264720567
O          -2.44642724724714   -0.90777044016979    0.35610816271830
H          -3.30295478775808   -1.19403904833831    0.67667843735333
H          -1.77972397627982   -1.37325082464020    0.92928691595795
O          -0.67641758011956   -1.10474042616309   -1.75713076584804
H           0.02873002241852   -1.42757190133859   -1.16370049959616
H          -1.47730595051009   -1.13628012958765   -1.21065821941422
H          -0.42821668820126    0.44540503747565   -2.12883362043039
N           1.02737558227124    0.92742685264734    0.75474511630758
H           1.08582851670379   -0.04298818427366    0.34208233775813
H           0.01805629141220    1.25212415487673    0.70103877015746
H           1.32344241095068    0.76772830795598    1.72390221227910
H           1.61008846584790    1.58998707529751    0.20979696860294
