    26
        -50.46208145  Gyration_radius:  2.50506965418 Dipole_moment: 2.744
 S           0.89127767622137   -0.40031110057429   -1.81478419651258
O           1.01806175543499    0.97717092607699   -2.22267558318619
O           1.54076547566433   -0.67382535556944   -0.53501150507137
O          -0.47719027235867   -0.89571417572277   -1.81141479066283
O           1.66125769834606   -1.25568048733375   -2.90281275326649
H           2.36816190485388   -0.66150343507850   -3.13034040948746
O           0.19435877786028    1.35355613923391    2.32371923139229
H          -0.30961613090777    1.95780945335272    2.86968320450055
O           2.60259492070054   -0.32985955772816    2.08587431283131
H           2.56666421606977   -0.40450946139061    1.12501752576408
H           2.11686898447215    0.47257402319068    2.30270173501090
O          -2.23728184417784   -1.70426261601081    0.06826545169595
H          -2.78649961577285   -0.91844416845452   -0.03222544911664
H          -1.66646615565073   -1.69719656508866   -0.72276320237918
O          -2.34435811561858    0.89055553522497   -1.27174616688306
H          -1.65663266002376    0.25702578268939   -1.57796998349316
H          -2.63694264980754    1.36148086477282   -2.05343739236010
O          -0.17648953142035    2.13039561831458   -0.13880136331069
H           0.13639073178849    1.70586104732701    1.39467191925636
H           0.40010354407395    1.83010430481186   -0.86675389929246
H          -1.07051480947447    1.85135019506938   -0.40427206279089
N          -0.04476497188474   -1.18674234069866    1.48478735651802
H          -0.06137429158327   -0.26173811369463    1.97149742317220
H           0.35563490927066   -1.88952857412563    2.09893957611805
H          -0.98926560565399   -1.45558266993272    1.10756109787618
H           0.60525606957471   -1.05298525866313    0.65228992366555
