    26
        -50.47168701  Gyration_radius:  2.49105224929 Dipole_moment: 3.001
 S          -1.81423823367398    1.17471853929306    0.79482673180557
O          -0.50622145647060    1.66315960892964    0.36440602283267
O          -2.55507500409569    0.63271009148428   -0.33919254338352
O          -1.73410717744244    0.27763321623611    1.91933650827639
O          -2.62891588225379    2.44197085584645    1.27877284335288
H          -2.74711299917902    2.91083732852361    0.45979503989871
O           2.62008915075400   -0.30814247615147   -0.63267546100282
H           3.57650088526152   -0.31957999650192   -0.59327685755058
O           0.84744160906774    1.34048525888748   -1.93905874706319
H           0.41642492008802    1.67810800552782   -1.12982037529531
H           1.62518177182395    0.84862846467301   -1.61828063119169
O          -0.02038544730690   -1.65694030300362    2.03431047731869
H          -0.29804362493177   -2.25980335016274    2.72536295057333
H          -0.71241080326811   -0.94818914518544    1.99643917103064
O           0.63800624524122   -2.21721109278671   -0.54650777967898
H           0.38831644619960   -2.13594717788344    0.39389743810465
H           1.45423287394471   -1.69310731250286   -0.63969009450836
O           1.60090777263203    0.57288221777164    1.59340714148515
H           1.20570130925614   -0.21803282690983    1.98841083258547
H           2.30525070116347    0.05847245966627    0.24514469701884
H           0.84285240269503    1.08678426682054    1.24684879275232
N          -0.91576138041088   -0.60379394717549   -1.94312265569593
H          -1.33611063138442   -0.97263713151039   -2.78839671932274
H          -0.21641228358205    0.17327961260735   -2.14817928965547
H          -1.65017547439594   -0.17004562896187   -1.31175749796753
H          -0.38593570973231   -1.35623956753225   -1.41099997471896
