    26
        -50.47086748  Gyration_radius:  2.41852191594 Dipole_moment: 5.110
 S           0.75661473536306   -1.38777221093841    0.82857263267511
O           0.04493388316437   -1.59327605919989   -0.44494559106690
O           1.28697253477947   -0.02409181192723    0.88443913973597
O          -0.06359145890968   -1.71974454087678    1.95701936241406
O           1.99326268261118   -2.34932000223361    0.79839060410014
H           2.55758839266231   -1.97161892673813    0.10602037305146
O          -1.04909258675358    1.87753339073417   -1.40758180244275
H          -1.24345979002638    2.49778447405120   -2.11136949481204
O          -0.43812791971256    1.96946385472675    1.39430967095707
H           0.29443761159044    1.33077435595268    1.31293116332983
H          -0.66877920300373    2.20040361990347    0.48532046236299
O           3.19689116456220   -0.45440866416282   -0.77128341638315
H           2.52478039409027   -0.10311499669396   -0.13780985952606
H           4.05146037186554   -0.14926307921394   -0.46105744520107
O          -2.06712589310576    0.03831770745270    2.23233628503933
H          -1.39541931114074   -0.66075121047533    2.36954938406336
H          -1.55076813487559    0.87498087095761    2.17099852518981
O           0.80111337163204    0.20021855011923   -2.24139673014049
H           1.75330641187097    0.26381564645044   -2.11012997677030
H           0.52934239620018   -0.55038727925264   -1.67143491271276
H          -0.28530000049628    1.32735693762657   -1.72539145970274
N          -2.23845536833065   -0.32484009244560   -0.31273169564256
H          -2.00545521019095    0.57656803873783   -0.77238820997429
H          -3.06524636936136   -0.75121454396808   -0.71525398666392
H          -1.38964455436290   -0.94985335927964   -0.42111924507564
H          -2.33023814013027   -0.16756063921161    0.76400621320513
