    26
        -50.46690449  Gyration_radius:  2.50936485084 Dipole_moment: 2.766
 S          -0.87556393148515    1.60554462294795    0.38274535022628
O          -0.34333700420834    2.35882127447746    1.49018308260994
O           0.16010702472289    1.21766511352937   -0.57705209119591
O          -1.70229869514671    0.47491082594021    0.74467865617182
O          -1.83093137175192    2.62017473722294   -0.39835997560338
H          -1.48067603122034    3.46302857994544   -0.12998586755431
O          -0.54626192044354   -1.95881421799347    0.84125086871098
H          -1.13773735565272   -1.21389970141807    1.04940170791984
O           2.34861662187336   -2.00810433252878   -1.47806418632670
H           2.35699275951555   -1.45117392739588   -0.67948064489011
H           2.62576983148923   -2.88127695545062   -1.19639938612106
O           1.37889303426166    0.96882726831784    2.97964210073016
H           1.91783702271541    1.60928072444905    3.44665709545688
H           0.69075000894856    1.48644725118304    2.51119496226895
O          -2.52700007139460    0.20758452470899   -1.79956179127982
H          -2.85910929675558    1.07524841077010   -2.03386202303749
H          -2.36298885859267    0.25213328319353   -0.84139861439770
O           1.76142098637925   -0.48866467832776    0.75819313595733
H           1.84694177580268   -0.11092254867047    1.65380278462069
H           0.34841853091724   -1.63122848342984    1.05635563251384
H           1.30772843374017    0.21169460671600    0.25217149732177
N          -0.21829274683686   -1.18098419298413   -1.64597199544856
H          -0.47507059332171   -1.66505689445026   -0.72993367030979
H          -0.98735182871985   -1.21982496392308   -2.31194302675286
H          -0.08139488758646   -0.17238581844975   -1.37488875505515
H           0.68453854242454   -1.56902449820915   -1.96937483626382
