    26
        -50.45865073  Gyration_radius:  2.64793462153 Dipole_moment: 2.970
 S          -0.91783896377495   -1.58171406450664    1.44010446344558
O          -0.76682212550617   -2.09383695313263    0.07995638810076
O           0.38851320645761   -1.18448139976678    1.97512010163264
O          -1.90519223029990   -0.54908419778496    1.57786890312346
O          -1.39330687553096   -2.82214455423354    2.30209313829808
H          -0.87068112392070   -3.51707202439075    1.91686523466428
O          -0.57350490295939    1.81758239801906   -1.75633320398240
H          -0.13415452130000    2.66159970821971   -1.87188283813343
O           0.75383938657246    1.42207887571371    2.17852711471449
H           0.59581808342677    1.70054091257287    3.08188043482678
H           0.55245593407604    0.45711400758859    2.15955453776243
O           2.57533269337836   -0.36207301696925    0.67281511003476
H           1.92713531746182   -0.85186551918444    1.21924116822139
H           2.57261743175975    0.52548727240724    1.04664109349236
O          -0.16259567680761   -0.10492947667966   -3.86896478600713
H          -0.91735684034296   -0.49666726299642   -4.30996378057011
H          -0.50015284823065    0.64634905668922   -3.36227317223585
O          -1.46614100231652    1.91757079726344    0.66215593904935
H          -1.84877815397570    1.06278772411613    0.94055594448930
H          -0.64330372494137    1.97378916351536    1.18331692045975
H          -1.04190599077521    1.87805776451888   -0.86917350316323
N           0.77235402135299   -0.50005634504377   -1.28887775477078
H           0.95730566784880   -0.83143809945510   -2.23716146191534
H           1.63213521201630   -0.42689506400108   -0.69171112667897
H           0.30613477608082    0.42887406724149   -1.38584836174693
H           0.10809325024975   -1.16957377966658   -0.79450650310946
