    26
        -50.46975086  Gyration_radius:  2.44581292973 Dipole_moment: 3.860
 S          -1.83052439318797    0.27525417409522    0.43976643395300
O          -2.62974668476634   -0.42493202574642   -0.53541209862609
O          -1.04989545155290   -0.63066401217422    1.28842071249313
O          -0.98428001345653    1.30791172000173   -0.12386052853668
O          -2.85862448202843    0.98546953454552    1.41751774869336
H          -3.67610650913898    0.79657988782707    0.97057823529804
O           2.50474707273435    0.06502542815650   -0.70089442462442
H           3.45926005524959    0.10470402201658   -0.63758299978255
O          -0.94822410144152   -1.53211480350812   -2.29396647271085
H          -1.71714904740908   -1.21863867760668   -1.77469768747615
H          -0.53108595159837   -0.70686800942023   -2.63549090409110
O           0.32260840581828    0.78958021168626   -2.45096719569425
H           1.21132361054335    0.65995754831276   -2.09582685374937
H          -0.20134695740361    1.14643745840443   -1.71226303352577
O           0.49088863417124    0.56032366485717    3.10140068116261
H          -0.07143109856600    1.08852171207921    3.67000293268128
H          -0.11119243257129    0.06585998355628    2.50809791954981
O           1.44685354607815    1.80318307287262    0.88849063951469
H           1.32088001532452    1.42354650771215    1.77950514647483
H           2.15168075470040    0.77396288354252   -0.07800070777172
H           0.55001494337561    1.81268392236574    0.50224108492733
N           0.65449826943910   -1.85317881237701   -0.29544537566494
H           0.04021964652455   -1.85830290693827   -1.19525950006266
H           0.95923124842562   -2.78436537548863   -0.03474351731317
H           1.46697717157270   -1.21308888818890   -0.44524334156722
H           0.03042375916391   -1.43684821057400    0.44363307645250
