    26
        -50.46627172  Gyration_radius:  2.44587868643 Dipole_moment: 6.887
 S          -1.57199846658943   -0.52541170451477    1.10582592659786
O          -2.76126537924037   -0.13899533048642    0.40291262376851
O          -0.72092827419735   -1.45567634006938    0.35544315660154
O          -0.76626471409051    0.57759747817929    1.60926868047415
O          -2.06247614289914   -1.33004236378796    2.38229523313176
H          -2.99366879001616   -1.37928545630968    2.19834972454408
O           1.84267301091289    0.43564435651786   -1.66104949320806
H           2.43515857258805    0.98203733929421   -2.17774684159455
O          -2.04250495833806    1.06101572969499   -1.93772390797484
H          -1.62613226235927    0.28343338819070   -2.35492963023084
H          -2.50707011096847    0.70703146912266   -1.16081379691454
O          -0.46206691173000   -1.13610178482030   -2.36342039512602
H           0.39633114716496   -0.69333145348714   -2.33830587570779
H          -0.65379932472310   -1.39737033690771   -1.44850441464411
O           1.66086957472158    0.64861324188433    2.57588211882611
H           1.92490756209674    1.56662948450879    2.48521791800160
H           0.69127769537573    0.63590890149719    2.39667048360410
O           0.04492576965716    1.91874555315752   -0.58606316524284
H          -0.24431865719136    1.54622324449721    0.26566689698593
H           1.14884908630269    1.06308707502531   -1.27011502081483
H          -0.74024175658877    1.79251466561267   -1.17942342553208
N           1.83236911707703   -1.04823884732451    0.54248079988368
H           2.03779569965161   -0.52491850202484   -0.34171017833573
H           2.39441285639362   -1.88824233873559    0.62332387176070
H           1.95376013768501   -0.40879321982396    1.37146534367251
H           0.78940553926640   -1.29207424883114    0.50500337750872
