    26
        -50.46892518  Gyration_radius:  2.49183249718 Dipole_moment: 2.539
 S           0.83462948069177    1.88723422358258    0.24355234101990
O           0.38018124693411    1.24831775602075    1.48277604306627
O           1.95732496020564    1.17763426006985   -0.33970560195354
O          -0.26389866168333    2.12496945755903   -0.65905080607668
O           1.40178299651173    3.30645864944886    0.65925803554523
H           2.30901252100275    3.10354702221976    0.86188233241581
O           0.61242482676082   -2.45678551105064    0.90139670838164
H           1.33885141349415   -1.96945959943877    1.35182781094989
O           2.31035284565561   -0.57938164140963    1.78223110673236
H           1.61872300315499    0.10457921920048    1.86257405849235
H           2.77712964878047   -0.33386381207435    0.97596138943714
O          -2.67591702648256   -0.99468278142926   -0.96076576939506
H          -2.41692057420526   -1.84760448037530   -1.31687541575812
H          -2.27773853084788   -0.32549428745131   -1.56231069558916
O          -1.34538825342980    0.70361830346280   -2.53759685399840
H          -1.76751581919926    1.30161923730242   -3.15629552628253
H          -0.92856797806524    1.27833455467959   -1.84778409322173
O           0.64641254965712   -0.93640613676694   -1.32986547158920
H           0.69168358611636   -2.18351234558909   -0.03091887206250
H           0.06258743951222   -0.56761654050699   -2.00059284364127
H           1.20514989490347   -0.19288379630834   -1.03631045218146
N          -1.31897474703008   -0.76623404066157    1.34590694071881
H          -1.88154259436894   -0.86845784517784    2.18314131608436
H          -0.75770344941997    0.12344093216991    1.39053870388362
H          -0.59214180958433   -1.56050970766486    1.25316378676146
H          -1.91993696906517   -0.77686109981044    0.48386181825957
