    26
        -50.46892578  Gyration_radius:  2.49159267431 Dipole_moment: 2.535
 S           0.61535849050222    1.76513263341027    0.90684993678034
O           0.58806512437016    2.17829719489767   -0.48345348043927
O          -0.69291381919853    1.26943261766538    1.34625461788493
O           1.66785605343978    0.83804172578278    1.24017676232240
O           0.88920236856110    3.08744020227428    1.73455451983708
H           0.48799842286290    3.75046212111964    1.18246772644115
O          -2.09320252499808   -0.69342632309752   -1.53499555677748
H          -2.34073773775737    0.24899057216485   -1.39810953422907
O           2.71498397571918   -1.16889533281032   -0.02229495741763
H           2.35392752749951   -0.38648485827422    0.46501675258850
H           3.60548537621457   -1.29521450011453    0.30878368583051
O          -2.15419391537661    1.88558791141190   -0.80796040376347
H          -1.77690106088149    1.71549224965154    0.07595677580594
H          -1.41288787722766    2.25220255835315   -1.30222642152194
O           0.71816299990303   -2.90102489716747    0.36919596468752
H           0.55345274561434   -3.22463077298646   -0.51933859973194
H           1.50704960102421   -2.31749281944601    0.29563834997770
O           0.56560672109474   -0.23584724377667   -1.64095326612858
H           1.40905508740814   -0.62986260920888   -1.39577121657912
H          -1.17364189765867   -0.64866569448800   -1.85543012428447
H           0.60521863433927    0.68272128337985   -1.31566332676661
N          -1.33435138649453   -1.25012364737333    0.89378140335455
H          -1.00941242143593   -0.29422753924320    1.19247838996417
H          -2.01452274197349   -1.61139896927915    1.55314985627862
H          -1.76304893082450   -1.11409789286688   -0.08882853681267
H          -0.51560883472745   -1.90240799997900    0.80072068269713
