    26
        -50.46194821  Gyration_radius:  2.51166864478 Dipole_moment: 4.770
 S          -0.13334389030080   -1.88871968471675    0.95866395826140
O          -0.65408958024318   -1.16857527201637    2.11615712516264
O          -1.13683007799079   -2.02514351475724   -0.08201700198157
O           1.12370805368016   -1.34285975936982    0.49404434180892
O           0.19345011737702   -3.35848860890953    1.45374707714665
H          -0.65916123106851   -3.74865394818702    1.62256548041552
O           1.44061431537337    2.29313385172759   -1.51029468041061
H           1.34652661594001    2.72201195074912   -2.36126640872458
O          -2.06242857069729    0.46347232609237    0.08502788723087
H          -1.72920113497611   -0.45529342815262    0.03292836796765
H          -2.62301101970213    0.48334718157880    0.86293773850920
O          -0.26104190113148    2.45472614510433    0.49458207689244
H          -0.97810751600866    1.84168901094292    0.23505190592550
H           0.34176465518051    2.51514392109865   -0.28627009806288
O          -1.17430842915064   -0.85241745396661   -2.55619768796100
H          -1.72218470161895   -0.11333959651288   -2.27815919111704
H          -1.19571310468283   -1.47745856164899   -1.81305965058887
O           1.43241029551787   -0.28595432304051   -2.00425128653494
H           1.50716675432915    1.31961395486995   -1.70193146088378
H           1.44611991243979   -0.76053169169356   -1.15727342063728
H           0.56194044246510   -0.49372383484561   -2.39717607003709
N           1.01510495069283    0.80025383670326    1.98950513055907
H           0.26773899800305    0.12600488664685    2.30923120172870
H           1.54028505509176    0.20343708228609    1.32853738986843
H           0.51994732344563    1.59907121713310    1.41890196146155
H           1.59264368801805    1.14925430286806    2.74601533397426
