    26
        -50.46753497  Gyration_radius:  2.51807161798 Dipole_moment: 2.752
 S           1.53375720357041    0.04154584986903   -1.03651752504893
O           2.21383057837771    1.31482874497907   -1.01332728112217
O           1.21088693638713   -0.42262619368226    0.31404177892078
O           0.38123037843316   -0.00712220540327   -1.90901804141305
O           2.58027088971430   -1.00798476456530   -1.62044423835072
H           3.41018784965580   -0.63497846087224   -1.34216991850460
O          -2.04263426768247    0.27747637246255   -0.76847017362254
H          -1.30992357180728    0.24863969048614   -1.41053859139832
O           0.91063731419137    3.31537634889510    0.16407927483736
H           1.47912277304873    2.62728935347075   -0.24776483397897
H           0.72544563365832    3.94873773703004   -0.53105808043430
O           0.16428205986338   -2.68033870638221   -1.74467232546987
H           0.19236812383001   -1.72743469062402   -1.94091230912213
H           1.06469667842773   -2.98802284943451   -1.85886022680561
O          -1.77144758935494   -0.40505893234790    2.86259331141304
H          -1.61544258499190   -1.02952147858957    2.13629169348965
H          -2.04610688606776   -0.92901809336788    3.61531749268098
O          -1.03079008686983   -1.89032089222977    0.59346028754624
H          -2.02112937712339   -0.60052458386008   -0.34363609259292
H          -0.94529408965447   -2.53496163123515   -0.12443990489696
H          -0.16088928487482   -1.44345626188926    0.58468376570561
N          -0.59317086356544    1.33527705936052    1.15040918140526
H          -1.31471055171527    1.08388373974324    0.40738848403703
H          -0.99648847612622    1.15160485434157    2.07386238620343
H           0.19723967766660    0.66742510677915    0.98606582473889
H          -0.21592846689838    2.28928488699695    1.00363608181909
