    26
        -50.46753463  Gyration_radius:  2.51763041217 Dipole_moment: 2.726
 S           0.49856723914548   -1.72140077756776   -0.46830136571853
O           1.14236044857533   -0.40791271101567   -0.53073766374000
O           0.99686768276115   -2.50678588835113    0.63576679586141
O          -0.94270196829113   -1.61422305712406   -0.52573844031619
O           0.94214517509037   -2.48809667977607   -1.79237109333662
H           1.74746180280612   -2.91201988987560   -1.51474260078182
O          -2.05920220264469    0.64709163877190    0.42389049027388
H          -1.91834913960419   -0.26812053316064    0.12017867591058
O           0.69946714658085   -1.42673976328543    3.05042553675835
H           0.88882727864375   -1.87812163446374    2.19798838629765
H           0.08911074573169   -1.99967401770791    3.51724667943726
O           0.51907632209469    3.29605140766208    0.60263097487993
H           0.18846497622453    2.85569908857327   -0.19638025347898
H           0.79662099877879    4.17186191880125    0.33352153078866
O          -0.93705816927422   -0.57923647336291   -3.00505448646787
H          -1.06541913726274   -1.01738668156092   -2.14538437470697
H          -0.31990091695485   -1.13594041737750   -3.48220992469494
O          -0.34055156674213    1.62596705474164   -1.49045387200823
H          -1.73973024022728    1.19547900835355   -0.31713109730954
H           0.30380555680944    0.94527588952320   -1.21129493449732
H          -0.72439981193005    1.23879864976873   -2.29126463073119
N           0.25634346848217    0.81143250550687    1.65410566653190
H           0.55469499780735    1.78418912561953    1.77126010697042
H           0.41870033900682    0.18792912652963    2.46574602403826
H          -0.76669775433344    0.80203759753426    1.35544299173917
H           0.77149672912751    0.39384549370871    0.84286087830778
