    26
        -50.46911896  Gyration_radius:  2.45469415311 Dipole_moment: 4.008
 S           2.00578663643160    0.89375695900666   -0.43957712874518
O           2.76721157490759   -0.12075764528681   -1.10856587536414
O           0.79338585121865    1.29153570864181   -1.14191685943273
O           1.69337730748504    0.57102373644330    0.95766898779091
O           2.93172834762519    2.18699628733637   -0.38417984695335
H           3.77824227807561    1.84102328283474   -0.64938224667387
O          -1.52134485712826   -1.58967065059232    1.56056908121609
H          -1.77217701830044   -2.32016805577245    2.12626343865823
O           0.30456654747246   -1.14768327010656   -2.01149655042619
H           0.46806820443718   -0.20715463310569   -1.78299391735822
H           1.08575233340379   -1.41756492425729   -2.50027670597695
O          -1.76585209692331    1.83109881318436   -0.54672257959739
H          -2.15167817516530    0.97301979700161   -0.84305901640380
H          -0.88625981490536    1.86140194184368   -0.96463940636351
O          -2.32237519582061   -0.73922014032229   -1.02584932923982
H          -2.20857120840849   -1.13585912525765   -0.14976156931216
H          -1.55389998502464   -1.01291103415889   -1.54414157399556
O           0.82756964986796   -1.95235850603092    0.53715515855005
H          -0.61332627906630   -1.81336074189127    1.19308338407345
H           0.67775080585302   -1.87362895643977   -0.42502062044389
H           1.33862959623753   -1.15845833938886    0.77123881617255
N          -0.78282378948030    1.01800925302516    1.70510696338780
H          -1.26877005791538    1.45181031050664    0.83329058960931
H          -1.17497004017001    0.06678117524917    1.84728113780784
H           0.24264847191469    0.90743118097225    1.45492223333453
H          -0.89266909662754    1.59490757654938    2.53100348568993
