    26
        -50.46862857  Gyration_radius:  2.47490698423 Dipole_moment: 4.029
 S          -1.14632486470965   -1.72207140194621    0.87546368385811
O          -2.33770359525803   -1.62666901023300    0.05765793664419
O           0.06560387756465   -1.87069456197532    0.05161444225301
O          -0.98515076024720   -0.67673044639030    1.84873702103991
O          -1.28481212417872   -3.09087918781897    1.66880677263727
H          -1.78536067454833   -3.61113161710318    1.04914797965696
O           1.85766200532113    1.11446482816505   -1.65928236039588
H           2.39440173135205    1.31124366589517   -2.42711665889379
O          -2.12891144777208    0.76861624068291   -0.91694063908466
H          -3.00074967815970    1.16579684984848   -0.95527901766955
H          -2.25139932316912   -0.12058734479438   -0.50224468479155
O          -0.09085486192443    2.43628459568626   -0.04418189920358
H           0.61839225520731    2.19292191485374   -0.65436869736659
H          -0.85695743643856    1.89486145906983   -0.30079640606394
O           0.67835057831486    1.36142728765503    2.26959819637846
H          -0.03962223876679    0.71037827395638    2.38102908346019
H           0.35738095029618    1.95909445419602    1.55436375601558
O          -0.08233895821638   -0.50677974472547   -2.25520204703488
H           1.12848602549591    0.50016368201515   -1.97130093048721
H          -0.04200053313736   -1.14816827029336   -1.51821548411468
H          -0.88968722110296    0.00261005771826   -2.08629813647308
N           1.99681911781917   -0.21784617112892    0.70880142122565
H           2.16659426893451    0.31044289868731   -0.16822271829903
H           1.55499611244376    0.46215370237188    1.44033050139342
H           1.25764167183909   -0.94846261760957    0.49978444511644
H           2.84554512304127   -0.65043955678255    1.05411443019880
