    26
        -50.45417773  Gyration_radius:  2.46224392963 Dipole_moment: 6.560
 S          -0.10371269400063   -2.26081747428153    0.22465566427943
O           0.84801717018883   -1.80839247963018   -0.77198523566193
O           0.40407642088565   -1.95096120150633    1.56992456652221
O          -1.44831715757678   -1.78497180294394    0.03267498451114
O          -0.15121962178008   -3.84152434510246    0.12344610457965
H           0.77006078984936   -4.07343776727207    0.06327697188387
O           1.72412497407891    1.62553079826482   -1.03635618531872
H           2.62034400463059    1.61547381381734   -1.37352884682878
O          -1.93839304071930    0.54456313443858   -1.21585925422428
H          -1.60761980577288    1.17741234659214   -0.55994755690829
H          -1.88213566995513   -0.33883108618769   -0.80568908854010
O          -0.57903354352475    2.56489334746392    0.21860028565084
H          -1.06915069298099    3.34778375582173   -0.03567198473406
H           0.20261295205133    2.52091240979537   -0.35125964097818
O          -1.42371583732521    0.07874706824196    2.11858142065371
H          -2.18969566319442    0.00224622105951    1.54398284561422
H          -1.01483448999991   -0.80094603083893    2.10623406718491
O           0.34105073190275    0.10695401972811   -2.53597202251920
H           0.54546145527538   -0.71655760415413   -2.04729703722535
H          -0.58735441640956    0.31148057355406   -2.28195155115570
H           1.18316070397812    1.05479651078115   -1.69329498295415
N           1.09698030492023    0.53673610200271    1.33883314619067
H           1.01366236470453   -0.52555793080998    1.37950677649340
H           1.41003358989256    0.88037755616929    0.39307545148599
H           0.12149941769031    0.85763936709284    1.52609061159592
H           1.71409775318665    0.87645070790636    2.06993049040531
