    26
        -50.47071378  Gyration_radius:  2.41584245248 Dipole_moment: 4.138
 S          -1.24110121724369   -1.24535725211060   -1.00936333053861
O          -1.06972989999015   -1.75107249138513    0.33129418528951
O          -1.89983531649629    0.04842804907680   -1.07893857798045
O           0.01700993252691   -1.24736411929948   -1.75885902549545
O          -2.20093640258859   -2.26289808856978   -1.75134961635045
H          -2.46194517757407   -1.77105613471727   -2.52231980156394
O           1.21602684707293    2.21433813247738   -0.09182814112478
H           1.73397916440713    2.99317829025617   -0.29803601326408
O          -1.43846013554773    1.78523390752031    0.93705843592078
H          -0.59575410555442    2.15169452854485    0.63776584729914
H          -1.74552910101178    1.19851335657068    0.21941913194596
O           1.62475775992420   -2.15947813367035    0.07746919316758
H           1.15186742379979   -1.85502280400292   -0.73166836956650
H           0.94165405685228   -2.64694814561055    0.55155974157836
O          -0.70129663289834   -0.22613784738616    2.48397797158092
H          -0.97795800582530   -0.91327658764158    1.84444538436793
H          -1.11497454748910    0.59756995749618    2.13192842254615
O           0.12692181816876    1.31333862556658   -2.27127656731679
H           0.33200910208399    0.35658405080104   -2.26787173826661
H          -0.81058523489731    1.30981857644105   -2.02434627179375
H           0.84937182450995    1.88598329329607   -0.96506954609816
N           1.68229231277157    0.05599736386591    1.51821370527752
H           1.62607979916739    0.89417231622969    0.90823776121478
H           2.45110755961789    0.13648087545091    2.17400236919526
H           0.72600723602858   -0.04301262986468    2.03497867990990
H           1.77902095018057   -0.81970709933165    0.92057616006583
