    26
        -50.45538137  Gyration_radius:  2.56576383674 Dipole_moment: 4.114
 S          -0.08712082544527   -0.25731999080149   -1.01665325770682
O           0.83934548490062   -0.82924109171300   -2.11178387553449
O          -0.74073033644471    0.93381879918674   -1.50109463990209
O          -1.00884314531109   -1.32953575083696   -0.64916799262851
O           0.78132419026860    0.05206273002670    0.14631395659327
O          -0.53929257093670   -3.10917070198186    1.16805817914114
H          -0.80380525859124   -2.53897260804684    0.39970586840017
H           0.09494890665492   -3.74192985553407    0.82615595412392
O          -1.88978901760165    0.20455042524849    2.81993631469548
H          -2.57256236404359   -0.33078999918678    3.22937795396580
H          -2.21980661230826    0.41984869506394    1.90361356943980
O          -2.67531498662753    0.47387913007732    0.34340234622543
H          -2.25217729387434    1.13257042475630   -0.22385411868006
H          -2.33664850753882   -0.36173941368443   -0.02504205204762
O           0.28640402579315   -0.99443658406690    2.31418580487228
H           0.56299722420153   -0.50888154210334    1.39172470233759
H          -0.56898887737244   -0.49371216219100    2.61197635689478
H          -0.01054540727788   -1.92274965599333    2.00139555352942
O           1.30213171519504    1.43362077037522   -3.17575145247016
H           1.90596533968923    1.79627289290233   -2.48115619946805
H           1.12373543677095   -0.02309616531532   -2.65309614399806
H           0.41067107689481    1.64860437117210   -2.86180669180925
N           2.55038264352726    2.09092586004390   -0.88544865992158
H           3.51671312520519    1.85675547294824   -0.69587475636261
H           1.96619233399802    1.40489950449120   -0.40825148098976
H           2.36481369029306    2.99376643513628   -0.46686523872821
