    26
        -50.46232626  Gyration_radius:  2.64536565439 Dipole_moment: 4.253
 S          -0.88103083446031   -1.47837252766109    1.98178269274995
O          -1.65204531753723   -0.37185167293903    2.52117925228246
O          -0.99781523013645   -1.52013583484019    0.50932428985375
O           0.48989847996699   -1.54151838233774    2.39680545838552
O          -1.60038533969520   -2.79890646168694    2.49592894070840
H          -2.52141314542862   -2.61907346785157    2.33245364052460
O           0.23296589983190    1.18244865865750   -2.45507960359978
H          -0.11898517649202    1.58601984147512   -3.24916648083298
O           2.10655664204051   -0.78570274533963   -2.60729743816803
H           2.90019893263927   -0.36711791287213   -2.94357599235690
H           1.39578598880193   -0.11258006048789   -2.65497505637195
O           1.27810478376287    1.73656082690858    0.07559258231311
H           0.99662524522637    1.81926068789901   -0.84892404193112
H           0.47322742920541    1.87689971830291    0.61364704580757
O          -1.08818908940339    1.88083936946031    1.39432515300503
H          -1.29095628290761    1.01863657764936    1.84991144895281
H          -1.27718432325179    2.56286577763835    2.04064206467303
O          -1.80038175428288    0.56610598856445   -0.94530291160296
H          -1.77390241641803    1.21854747867759   -0.22963782328420
H          -0.56484773310888    0.88704802051992   -1.92664847337119
H          -1.62621228909375   -0.28642079464459   -0.49728845668512
N           1.49132579043166   -0.90575735004509    0.02036932523672
H           1.88311526569402   -1.12782634306401   -0.91490682208779
H           0.48195493453076   -1.21817711802516    0.09174005840678
H           1.96213746494862   -1.35163299717009    0.80608660975313
H           1.50145207581167    0.14984072253703    0.14301454760988
