    26
        -50.46232654  Gyration_radius:  2.64563083947 Dipole_moment: 4.246
 S           0.33752495894109   -2.53972817057115   -0.57229534416895
O           0.96664309538133   -1.58172754081184    0.36027549227744
O          -1.01129713780440   -2.85963013852655   -0.13846668843529
O           0.46594163463650   -2.10266482983017   -1.93173984239236
O           1.17187434188839   -3.88344963503876   -0.41807123454863
H           0.91099697317059   -4.20063972945094    0.44138949266444
O           0.01222717294411    2.38470811002862    1.33991746090618
H          -0.07546602108300    2.92827621081878    2.12362839561715
O           2.15917920321734    2.66418968626433   -0.30961384765252
H           1.45421701264200    2.60018613678978    0.36825815048941
H           2.06479388536931    3.52534561723515   -0.71910771446652
O          -2.45042553288522   -0.75965649534895    0.28720206490891
H          -3.36110056724210   -1.02050473403099    0.14158825149288
H          -1.90718746206088   -1.57329990292831    0.10010284214373
O          -1.35420797198079    1.42005689215791   -0.89795951741158
H          -1.09207216481636    1.95386635148239   -0.13175895165361
H          -1.84579421481728    0.65568225691610   -0.53576978441311
O          -0.42895835202419   -0.07980162921224    2.06561709944873
H           0.17502088443433   -0.67547459915373    1.57750463959532
H          -0.08654798945745    1.43938837033849    1.65534350839659
H          -1.30436022051021   -0.28345258688334    1.70408373587387
N           1.06169712242064    0.41250001780375   -1.32080480694367
H           1.21387470245003   -0.07994622895925   -2.19956524365914
H           0.07149981830422    0.79684989475230   -1.28685630072116
H           1.13253120027559   -0.33368103834344   -0.57267189915558
H           1.71939562871285    1.19260771448216   -1.13022996815331
