    26
        -50.46794289  Gyration_radius:  2.4639560316 Dipole_moment: 2.608
 S          -1.11652830648294    0.61424514493857    1.33270383649211
O          -0.19458785555371    1.68453557171373    0.97534276967484
O          -2.31326311348145    0.62962733406553    0.52358677953352
O          -0.44247755820769   -0.67475874448117    1.36206876158823
O          -1.57429891463244    0.87991674879326    2.82477534176186
H          -2.21829730576172    1.57357282878197    2.72620027819842
O           2.21378865933929    1.97183201195236   -0.18104938077167
H           1.43196850808464    2.01905283136818    0.40156261859994
O           1.62843851366375   -2.54378789525401    1.61731726093597
H           0.83727189044853   -1.99994591248788    1.74069679093525
H           1.74009956469193   -3.04764549336170    2.42413984999221
O          -1.88037018468200   -1.57904368108386   -0.92197975910676
H          -1.49008816710326   -2.12999362950158   -0.23951630081615
H          -2.17514332031625   -0.77434667998867   -0.45356688108950
O           0.03536307959219   -0.60319024240747   -2.53638162674633
H          -0.71922591603677   -1.09924286108057   -2.15289137759921
H          -0.22653048951264    0.33517487886817   -2.44288548894671
O          -0.82585714190543    1.79626798933549   -1.61670798430643
H          -1.77986919415591    1.68337882736850   -1.61896393146514
H          -0.59058935051386    1.83329016168510   -0.67001438042670
H           1.97403780200170    2.46570525931367   -0.96921901987036
N           1.56651761046067   -0.61818649960609   -0.43315097501209
H           0.80863068688159   -0.60479951799721    0.28611440386873
H           2.17705187945555   -1.40221128005664   -0.21098895408346
H           1.07644563262640   -0.71307738006397   -1.38478704523144
H           2.05751298116541    0.30363021913340   -0.38240558605848
