    26
        -50.46103455  Gyration_radius:  2.72976599067 Dipole_moment: 2.736
 S          -0.66048728133940   -1.79164349807374   -1.62424273315968
O           0.66399991332201   -1.83611757588498   -2.22850743110078
O          -0.60248905397345   -2.12063693313312   -0.20716230016094
O          -1.36114301292984   -0.54529733571443   -1.86784736524721
O          -1.50093331468859   -2.92996959251780   -2.33816394691793
H          -0.87724494004177   -3.64828417518658   -2.37535914079872
O          -0.25461375238965   -0.47654473540343    1.87870575112584
H          -0.71048920219309   -1.13529586631877    1.32088020119032
O          -1.33676900175834    1.88873686253585    2.82031307556417
H          -1.06078372549369    0.98693171416436    2.58227077513956
H          -0.92971747624902    2.08149522686713    3.66620729336312
O          -1.03399957234244    3.40377543440056    0.59692460775314
H          -1.90002069180595    3.68683364289161    0.29949795321442
H          -1.17041115863298    2.97375477424079    1.46735808721129
O           2.23805148751226    0.08022539460672   -1.48795857792665
H           2.85080422726430    0.28466674879141   -2.19536711691438
H           1.66866843143032   -0.66311633376260   -1.82607077018364
O           1.90996824107890   -1.61009438497839    0.80207651244032
H           0.66334614052557   -0.81648584851488    1.88972138230207
H           1.15831249903047   -2.02792202566696    0.34743348288359
H           2.34301160912848   -1.06789599054131    0.13169567505388
N          -0.01242236210380    1.08140325369579   -0.33498412483669
H          -0.65114099265303    0.55619448670854   -0.99408378170744
H          -0.05195990448907    0.57115895076936    0.57885397493891
H           0.94236454629037    1.01121157246366   -0.72389814316791
H          -0.32390164231896    2.06291624361756   -0.17829335012983
