    26
        -50.46846775  Gyration_radius:  2.39945212895 Dipole_moment: 5.641
 S           1.23357896253072   -1.07216794807439   -0.80134302505576
O           1.31098062306755   -2.12662182134460   -1.77579958202552
O           0.44177095480027    0.05993119103399   -1.26897450612652
O           0.67985699946297   -1.55123547684048    0.48860642874909
O           2.66926297309466   -0.54919440248317   -0.49478964380088
H           2.55068321923829    0.25825003133224    0.06109826306015
O          -1.95437941436400    1.20549389047661    0.97624088126836
H          -2.69230740914409    1.80784879861788    1.07733170867172
O           2.26688334434618    1.50491463995237    1.15122575409991
H           1.56208578899346    1.08827427737896    1.72277751915863
H           3.04868819056769    1.58647564682539    1.70019171541486
O          -1.13655010522467   -1.65692806414157   -2.67315277859860
H          -0.23766915983802   -1.99781484796585   -2.45606542361680
H          -0.96414437083356   -0.78279195879946   -3.03594186913169
O           0.34807195718293    0.24539795473425    2.39538932880365
H           0.49773321968594   -0.52931456252866    1.81041574925125
H          -0.51259794086260    0.60181925035828    2.13550651832681
O          -0.02496161911157    2.41897727554193   -0.27210396347833
H           0.77090716007876    2.54893931240216    0.25673796068845
H           0.17240948148139    1.60851254346980   -0.79479484648757
H          -1.24028924250804    1.72318914516027    0.49623681861961
N          -1.79878867630305   -1.28184352040968   -0.13411190722506
H          -2.00404475003893   -0.30540530677464    0.16678069160111
H          -2.48031373825372   -1.93656571933608    0.23532123418772
H          -1.69941197919922   -1.37095596906587   -1.18870036942765
H          -0.80745447895140   -1.49718436954556    0.22191734313530
