    26
        -50.46038055  Gyration_radius:  2.63509209634 Dipole_moment: 1.996
 S          -0.42234163867928   -1.93472051170311   -0.49450704652298
O           0.42533189102205   -1.01865986093688   -1.24106265394600
O           0.26028536354097   -3.11954026436323   -0.04495034237169
O          -1.19445793905411   -1.23823450794541    0.52128467550524
O          -1.52627620338831   -2.45210412153418   -1.54644766648547
H          -1.17053093623287   -3.29066387509365   -1.82261526895551
O           0.41835530722078    2.25421316578115    1.40008755103473
H          -0.10657881126406    2.69985388357929    2.06643073723615
O           1.47792243940132    3.27079998659912   -1.07366213377347
H           2.39293188811142    3.04008445601692   -1.24016890850405
H           1.32621895761917    3.11511171347951   -0.13074082532057
O          -2.86834525618536    0.10549783954314   -1.01920538950681
H          -2.40500426773682   -0.41792564867335   -0.33094750598542
H          -3.05046991949799   -0.52316351342536   -1.72077344407399
O           2.31542223300553   -2.01443587723965    1.25465127285060
H           2.61656411086723   -2.69227464357659    1.86360636791764
H           1.63350527503068   -2.43959621024193    0.69755181594238
O           0.58964100069806   -0.18407243118684    2.24228262558428
H          -0.15702060325554   -0.58205081008378    1.75854456965233
H           1.36308435443064   -0.71761569397538    1.97236992889691
H           0.59514695094128    1.33757904417420    1.76785440281597
N          -0.51588912051158    1.38124475901334   -0.99170888445028
H          -0.03415824254454    0.43857166565861   -1.12449907111577
H          -1.52933587462372    1.19672613982661   -1.13344851152201
H          -0.32288518158628    1.70092259709041   -0.01579334238202
H          -0.11111575733406    2.08445268921564   -1.61413294252202
