    26
        -50.46846779  Gyration_radius:  2.39946710583 Dipole_moment: 5.640
 S          -0.38956237324294   -1.71305727978363   -0.47594868290908
O           0.31633182029292   -0.62722958082647   -1.14674507950711
O           0.26125012328468   -2.98268377190051   -0.65464118964854
O          -0.55234305284691   -1.37248393887494    0.95848797608125
O          -1.82634196159250   -1.78305581569790   -1.07558536199696
H          -2.17280371919638   -0.85860008591892   -1.05786067161361
O           0.86378290337952    2.19797512558229    0.80456107597616
H           1.31069898551260    3.04494582559007    0.82737267211719
O          -1.63010866781322    0.97142518373881    1.52293756073550
H          -0.84470003448477    1.53196532042492    1.45808528243809
H          -1.29957865764135    0.04903692660192    1.45415074447636
O          -2.75068638066853    0.70127764667999   -0.81982492316177
H          -2.40944735839528    0.88214065061293    0.10087158425417
H          -3.70512816770132    0.64375850765549   -0.74926803664062
O           2.67598430772551   -1.89399652054208   -0.65907515499744
H           2.57787440394075   -1.39180662310965   -1.47374481059986
H           1.87996439518893   -2.47501567788676   -0.64918820598027
O          -0.25589496454177    1.88489504101577   -1.51976788005462
H           0.44703794091868    2.13113331833658   -0.10653558243445
H           0.00814115285158    0.93682277370146   -1.54043636879932
H          -1.21943204998671    1.85302631492118   -1.49599830631555
N           1.77398652737247   -0.32932324977966    1.28115315100246
H           0.80439788280814   -0.79359612480752    1.29109890976441
H           2.24737826917050   -0.43073476976152    2.17291890052148
H           2.28121767361541   -0.84958732775293    0.50525572416998
H           1.60798098594117    0.67276815128388    1.04772663439492
