    26
        -50.45471600  Gyration_radius:  2.51436343794 Dipole_moment: 7.509
 S           1.83044049036366    1.05088962886033    0.08653149554173
O           1.10512724368158    1.69853945496440   -1.00775590083947
O           1.49402998829655    1.52611249408993    1.39540383896447
O           1.76691391298314   -0.40509380351636   -0.06386582182038
O           3.36040610265590    1.42991831523839   -0.14403181804655
H           3.60943776594571    1.82454415901784    0.68554288620734
O          -1.70185095842417   -0.90383427738379   -1.54006116936913
H          -2.57309117378071   -1.00191173508650   -1.92519707629480
O          -1.12988362398085    1.22170937379137    2.15472457491998
H          -0.18017549221152    1.40571462893030    2.07425794117672
H          -1.19248960521391    0.32680594319722    2.54085616854168
O          -1.24831297175082   -1.39862039121579    2.92723271697298
H          -0.83709502830654   -1.77333675896732    2.11877895859474
H          -2.09268287830275   -1.83866782041243    3.03240585055919
O          -0.24760886237947   -2.16687131483629    0.54255764266367
H           0.54713009161834   -1.61282715303317    0.48062602316738
H          -0.85641387495697   -1.83921741553029   -0.13461431455183
O          -1.53606138380431    1.38013241456774   -0.42413103503441
H          -0.64595212412770    1.70222511411340   -0.64188247190699
H          -1.70562706845442   -0.00497415195059   -1.05927631633463
H          -1.54504620737758    1.34277053999270    0.56986221520282
N           0.75449013912803   -0.41714751876811   -2.39234599583289
H           1.28984918669266   -0.75121179192634   -1.53710661366871
H          -0.24864963542396   -0.71272850196226   -2.27223451135008
H           0.82394027740919    0.61716079847051   -2.18889789833009
H           1.15917569970355   -0.70008023065312   -3.27737939916586
