    26
        -50.46215046  Gyration_radius:  2.51043807111 Dipole_moment: 3.321
 S          -0.05132357002494   -1.96897906981412    0.85240132042884
O          -1.29313730952521   -1.91956583643219    0.10207898485300
O           1.07661203855133   -1.47639169364029    0.06753880475807
O          -0.13351476565221   -1.33758509961411    2.15203391246179
O           0.24212459784430   -3.50130975347482    1.13026928287741
H           0.19024621512849   -3.91785411838833    0.27464486810177
O           1.08781634715585    2.36615626777786   -1.65332237883371
H           0.74986855915342    2.87484399891558   -2.39082703118554
O          -2.00009746426096   -0.46209464955358   -2.09910870768336
H          -1.86201021401939   -1.15870046475210   -1.43645619371021
H          -2.37274945157992    0.27686438032866   -1.61046543037193
O           0.12192900468805    2.38841241727706    0.79974051121819
H          -0.69615629178737    1.85608817373988    0.72775864664053
H           0.45459398319860    2.50577349833818   -0.12318933478352
O          -1.90571363920341    0.57988874149402    0.79674351357233
H          -2.20486800934895    0.53930454488707    1.70717902869646
H          -1.69182609389359   -0.34434286380399    0.55879804246327
O           0.70035233652742   -0.15586988023674   -2.28402924958850
H           1.01278579013154    1.41258976286581   -1.92264325048543
H           0.90979159385375   -0.70326540001726   -1.50883828898197
H          -0.26387650709224   -0.25184242486071   -2.41292303817875
N           1.62578631365909    0.49972504529111    1.67637859238323
H           0.96302367626373   -0.11918611047237    2.20577579695576
H           1.80756913715610   -0.09561930847617    0.84483663981748
H           1.06427865932460    1.38823382216734    1.35273226571968
H           2.46849509374938    0.72472604046428    2.19289269284963
