    26
        -50.46892545  Gyration_radius:  2.49154392916 Dipole_moment: 2.539
 S          -0.44966025890245   -2.01106404996035    0.26849865344557
O          -0.07630578954967   -2.00705828909807   -1.13328165936362
O           0.63481668201049   -1.50329633754237    1.11488904935755
O          -1.69833795917063   -1.35308135790114    0.56187029181085
O          -0.63386177296668   -3.53653970395671    0.65232005500190
H          -0.01154840795462   -3.96148448811080    0.07128461282523
O           2.18941829101986    1.34967578508714   -0.77287361543528
H           2.57311969637607    0.44480101393969   -0.81936589904258
O          -2.82175060383941    0.78514240942381   -0.37793812426307
H          -3.76815785497240    0.70238966594529   -0.25129740264086
H          -2.42793455669054   -0.05286804946674   -0.02760369447538
O          -1.29374622122577    2.56750136575694    0.89847144014503
H          -1.93204728427201    1.93635063894835    0.49543111514297
H          -1.02129836337424    3.14919979629482    0.18521503110136
O           2.57606643960659   -1.30181513600461   -0.71445028165136
H           2.02504359079146   -1.60168037674741   -1.44566817071443
H           2.00868697951687   -1.43579007260262    0.06831629658536
O          -0.26652828855585    0.61868341898591   -1.62166321978539
H          -0.20147430631383   -0.35193706509002   -1.55179592197147
H          -1.19854304538530    0.82159587073722   -1.49116245423234
H           1.37431550800997    1.28458908551484   -1.30378362187343
N           0.88314963459649    1.10045349877269    1.46645981272061
H           1.51250347407979    1.30102754106387    0.61098683804026
H          -0.00654555653008    1.64705029766926    1.34776790779337
H           0.68574677199182    0.06681546535174    1.43299871122188
H           1.34487322171853    1.34133906297978    2.33637425027849
