    26
        -50.46173144  Gyration_radius:  2.49822239637 Dipole_moment: 7.270
 S          -1.64360677936727   -1.57913926431584    0.62882026823661
O          -2.66821487095469   -0.66607951082028    0.11169953738801
O          -0.59106008841077   -1.76298141168999   -0.37175172566603
O          -1.14239677616487   -1.20578743641904    1.91884391882831
O          -2.35930362210335   -2.98275648119599    0.77674891548334
H          -2.69471721581640   -3.11785293533252   -0.10312474461072
O           2.26992531133131    0.71794326362605   -0.97493820684976
H           3.20895055597261    0.82453264635918   -1.12893862165802
O           0.68583835608966    2.26129276438736    0.51274117719920
H           1.11960164288807    3.08965174402390    0.72102487808417
H           1.31901082572678    1.73627791315675   -0.03473056030256
O           0.07732124414916   -0.15225909590548   -2.38627653395433
H           0.96450227377569    0.13348166040679   -2.10563521853344
H          -0.14160168320731   -0.90429813545312   -1.79560553514777
O           1.03207603442739    0.23095233830964    2.54064138170422
H           0.21732950858066   -0.30375245979121    2.53987066178553
H           0.81418655798469    1.02481963688758    2.03546348094515
O           1.89909524028966   -1.31142213497491    0.52558006058827
H           1.01940253654027   -1.63109758053040    0.24335540915582
H           2.17690914482639   -0.11976024148989   -0.39846351501768
H           1.74095348462438   -0.86693506602770    1.38860703772602
N          -1.47205575678799    1.35071664363784   -0.92919573607097
H          -2.02691625202655    0.56400240567245   -0.44037036318226
H          -0.87449437717507    0.84073952971598   -1.66411023017887
H          -2.10266224903464    2.02467838790531   -1.34890710702262
H          -0.82807302614739    1.80503281985935   -0.26134862892859
