    26
        -50.46975330  Gyration_radius:  2.44483503188 Dipole_moment: 3.643
 S          -1.89620962409681   -0.04774072287867   -0.06288213831318
O          -2.28845488028320   -0.84400951379915   -1.19912520648855
O          -1.11614255175506   -0.77826568754649    0.91786499337860
O          -1.22591159723638    1.19887462798684   -0.44025790192899
O          -3.24195509229560    0.40436734147600    0.64615121358659
H          -3.85586568260436   -0.21247047089477    0.26377548511083
O           2.55846287291149   -0.17006720998309    0.44893056107927
H           3.44046761390273    0.05865418591763    0.74285664264287
O          -0.04353665044717   -1.71826007653471   -2.35725061149154
H           0.31007753043735   -2.24717060251043   -1.60437919934331
H          -0.96258801354619   -1.50502207360285   -2.09408019136807
O          -0.47948726067627    2.72300318759939    1.60925383972312
H          -0.79964082586739    2.24597729679542    0.81649893787728
H          -1.25887911045034    2.92862341212428    2.12782843958866
O           0.83280218034335   -2.45221876334166    0.03499014087196
H           1.60379161968750   -1.90977462851204    0.24464609646743
H           0.08009917786967   -2.00826577243608    0.46431590642116
O           0.83969405670752    0.44719323684864    2.27460133138202
H           0.53886813674398    1.37141918046997    2.17989085084206
H           0.09093447133301   -0.08442218293122    1.94153834805484
H           1.93823562889980    0.07479565349734    1.20423529810306
N           1.01174502739321    0.52736634554471   -1.64520403363348
H           0.66371201949689   -0.41039512040301   -2.07769778396467
H           1.71927055389066    0.31703211274856   -0.90532296722404
H           1.38405212932619    1.15781066478224   -2.34651610137185
H           0.15645829030010    0.93296559961757   -1.18466191995596
