    26
        -50.46716916  Gyration_radius:  2.43129946665 Dipole_moment: 8.927
 S          -0.59998698085072    1.72066510544028   -0.00235427455392
O           0.74346158295981    1.30335616102888    0.37731315325537
O          -1.13657516441061    0.81076766468240   -1.04064250543934
O          -1.48598828828551    1.76762165874059    1.14141888922595
O          -0.51780733845111    3.12721329739678   -0.63551936110326
H          -0.05896586973754    2.94527590212175   -1.49628362461149
O           1.34255717231389   -2.29226392182061   -0.02649068125719
H           1.81958611215663   -3.09667339367472    0.18043888040773
O          -1.58907083818690   -0.51791458827448    2.32517481914477
H          -2.27897208362293   -0.47120309015490    2.98941221733356
H          -1.54210352936308    0.39807876631209    1.92551098292219
O           2.06894191036642    0.14418219499529   -1.62039271729150
H           1.99484473084864   -0.78965445734922   -1.40101434822452
H           1.70701913597276    0.61248313707673   -0.84356662051058
O           0.46177159374466    2.05374277638371   -2.79852168197045
H           1.25927162020671    1.52900758771683   -2.61144420119866
H          -0.26941620740734    1.44997035691880   -2.60196877565560
O           1.22233614877118   -0.69634383812980    2.03107255756671
H           1.43205225558900   -1.69701138740967    0.77290465116047
H           1.19107933191071    0.14103589148716    1.52107985476349
H           0.35142154558189   -0.75446349818095    2.44519241687682
N          -1.23539718412752   -1.57228218506598   -0.13091950350587
H          -1.92569710382268   -2.16067027071051   -0.58418768095750
H          -1.20465332055674   -0.58432712330521   -0.59286268609516
H          -1.47569299869283   -1.38668747801377    0.86549704219116
H          -0.27401623293311   -1.98390525821421   -0.18884681248953
