    26
        -50.46877037  Gyration_radius:  2.51434154035 Dipole_moment: 1.672
 S          -1.10587088035326   -1.09525223180003    1.14221135461829
O          -1.89890997188793    0.10209213371244    1.32058571183476
O          -1.33090588710013   -1.72237749166562   -0.15588554883147
O           0.31006041664999   -0.91459765590817    1.41095236630171
O          -1.60768225798884   -2.12897717402705    2.23354692193602
H          -2.55641835598280   -2.06427737295805    2.18451411994326
O           0.96058041547762    1.45965939179769   -1.73364560691174
H           1.07456646605468    2.10543909689244   -1.00262769672742
O           0.35193757465765   -2.65110518355657   -1.97781960067781
H          -0.31728379442405   -2.47063121861915   -1.28196765424851
H          -0.07595037125762   -2.44057946955269   -2.81040520914343
O           1.11289016952556    2.98668396682774    0.45751326039566
H           0.76665898037673    3.87785079331642    0.51322327548787
H           0.72487665124704    2.49406497561610    1.21981595615868
O          -0.00096034282560    1.58387378507947    2.43577751785001
H           0.55110643582203    0.79516654916316    2.49083745304452
H          -0.84344199713979    1.23213481814216    2.09185026387417
O          -1.56828623741099    0.64568435057524   -1.35626101302294
H          -1.54070813140801   -0.28919367777359   -1.08456530077156
H          -1.94648957143340    1.08582692193527   -0.58789823537945
H           0.00077933975932    1.25040914207920   -1.74630766517772
N           1.81900646271332   -0.77458820040797   -0.75416884722541
H           1.30712699015432   -0.83905588162869    0.16288714053868
H           1.44180140166500   -1.54814598103323   -1.34992991734712
H           1.55183859767481    0.17994150027526   -1.20540534836988
H           2.81967788741157   -0.86004589650096   -0.61682769813072
