    26
        -50.46342147  Gyration_radius:  2.49400651207 Dipole_moment: 5.595
 S          -0.43243004902600   -1.95143590027898    0.51092656151014
O          -1.40875845983509   -1.55169540743332   -0.50098920705925
O           0.91646759496590   -2.03772081342711   -0.00104694245967
O          -0.54004462308044   -1.12335313862003    1.69848049762319
O          -0.83727492680573   -3.42386940935714    0.92861978209800
H          -0.01660332371814   -3.74908352443887    1.28325700657789
O           0.53676004750723    1.22226299232027   -2.12290120289762
H           0.45142899800146    0.35354849445298   -2.57790169955797
O          -0.97428818840756    1.39161565498796    1.93694115516444
H          -0.77372590182054    0.41406982378276    1.87756603635637
H          -1.47174851171874    1.49886799877855    2.74941881250413
O           0.22569665442936   -1.38256622929281   -2.64406768455770
H           1.01481476633419   -1.73520135214478   -2.21947082314858
H          -0.48173823320293   -1.55404119686027   -1.99799043989505
O           1.72768277804888    1.98116993880066    1.99178312210007
H           1.85681283323756    2.87801698284085    1.67885888944190
H           0.76761339449329    1.83220889086749    2.04528995904266
O           2.11594485356750    0.38124124626032   -0.21547110056428
H           1.24146468920972    1.04741429738830   -1.44454110382899
H           2.10498168244042    0.83666406302565    0.64467484608434
H           1.77944536141919   -0.51998932438306   -0.06368806826777
N          -1.58865078088686    1.06213593193267   -0.70760709501066
H          -2.42621734488465    1.44021486012348   -1.13566306038084
H          -0.69085004466759    1.24354782604991   -1.33550685417731
H          -1.44738959536806    1.43434141345219    0.24590352373105
H          -1.64939364024261    0.01163590114982   -0.62487494042535
