    26
        -50.46877023  Gyration_radius:  2.51451470885 Dipole_moment: 1.663
 S           1.48771855653945   -1.23040823753430    0.07625395924092
O           2.22013828060699   -0.19712203312310   -0.62404831970446
O           1.30613394331701   -0.92127310937605    1.49068672739558
O           0.23349997190370   -1.60036908574044   -0.55607696966682
O           2.38628857666197   -2.53417209838929    0.01271962252306
H           3.25875786869653   -2.21512546903209    0.22183868281802
O          -1.57178569208165    1.88703148990283    0.17105817543038
H          -1.47296274202981    1.94367171179595   -0.80431346049369
O           0.71814215115260   -0.15950122981467   -2.81126538777435
H           0.26368588040842   -0.94632780582865   -2.48866117045280
H           1.41580296022582   -0.02529890466736   -2.14254905857760
O          -0.82886428267435   -1.01419486021291    3.05546924795286
H          -0.71589693887944   -0.25930480986587    3.63685629179379
H           0.02170310228259   -1.10805238755786    2.57353400446320
O          -1.07323094603774    1.78644897147056   -2.45529175978322
H          -0.78190633538298    2.53731767378733   -2.97349861380084
H          -0.42434023102288    1.06385099949041   -2.63163852770303
O           0.98115872060265    1.67233231305118    0.97007014376419
H           1.56705902502446    1.67390568070529    0.20597635111655
H          -0.66093930430373    1.97296786029753    0.52880497740289
H           1.10406390084835    0.78022265151587    1.34122799756413
N          -1.91627163667961   -0.63325780769762    0.63848751211960
H          -2.80658516909918   -1.03354002150988    0.36533275619778
H          -1.71180836334828   -0.79710130880338    1.65201693738564
H          -1.12497190808199   -1.07921197783806    0.10720330609977
H          -1.87458940862623    0.43651180501266    0.43980657469345
