    26
        -50.46877058  Gyration_radius:  2.51426445712 Dipole_moment: 1.692
 S           0.27667001207449   -1.89378635982412    0.25193660872303
O          -0.81812999952516   -1.89483293901573   -0.71276596606843
O           1.56185948762482   -1.66746196891843   -0.37350910193842
O           0.00052742586003   -1.01468494335994    1.37474192086336
O           0.33147214305696   -3.35203873233996    0.86986812234914
H           0.71444408718510   -3.87711520432597    0.17393081230258
O          -0.28292530096268    2.29840913882981   -0.83749138630504
H           0.55165178721936    2.48337687410687   -0.35406085208132
O           2.51851982513808    0.00660738789311    1.44980827651134
H           2.40207076937543   -0.59878196350106    0.69371864034834
H           1.75643444032410   -0.19798868338767    2.00412099144061
O          -3.17762202604117   -0.69223249191519   -0.69424427422255
H          -3.32391691117208   -0.46450427675797   -1.61474739999255
H          -2.39258662848205   -1.28242106405385   -0.68801154211826
O           1.99454628455915    2.46582901750652    0.55561708410573
H           2.81216983755350    2.81859007313637    0.20310581145577
H           2.21514183611315    1.57521976249553    0.91971377481659
O           0.33037174233485    0.03728040671478   -2.14560881606307
H          -0.21156750724902   -0.67926030200680   -1.76959793584516
H          -0.06425314857417    1.57277083314019   -1.46257811784907
H           1.22943348735680   -0.23432827922976   -1.93322186221577
N          -1.70249374129479    0.93403287942605    0.83905393941729
H          -2.45143324427457    0.44392696867442    0.29652426437900
H          -1.03475069408368    0.18413741686071    1.15348763978246
H          -1.15373476032422    1.59241639989295    0.16695937103657
H          -2.08189921378347    1.43684004996535    1.63324998716391
