    26
        -50.45493804  Gyration_radius:  2.63738088028 Dipole_moment: 5.967
 S           2.32208925851738    0.53064269435378   -1.22496933292668
O           1.99698159767514    1.91132743193790   -0.84096019501049
O           2.04363376981531   -0.36791750019141   -0.12212793176191
O           1.70475503673420    0.13703229356391   -2.47052448678805
O           3.89013979837329    0.49686341058211   -1.46828273489830
H           4.25249096269928    0.62127334254109   -0.59597075504151
O          -0.29262729174342    0.12594763235321    2.38092624922041
H           0.40463789736356    0.37462967357075    2.98821176819628
O          -1.74295802245604   -1.91966106749521   -0.34697214285812
H          -2.26609800594986   -1.28297576714745    0.16779089866800
H          -1.41918588507595   -1.42525431504093   -1.11402039440495
O          -2.85469513224701    0.00381543944931    1.36123407206254
H          -3.53280968014545   -0.41443092457829    1.89356991670837
H          -2.05730912897353    0.04557553437746    1.91239505850653
O          -0.83456819581178    0.00187337658296   -2.12708757317125
H          -1.23502773700921    0.22814867345734   -2.96821221811920
H           0.14854988598474   -0.03175385306772   -2.29519201609687
O           0.43290565757721   -2.02284893538968    1.23158483761004
H          -0.00715632806559   -0.78043492639254    1.99621435265622
H          -0.32536200622456   -2.18794550072855    0.62807295314196
H           1.11946944545776   -1.59772560498035    0.68507132721615
N          -0.36720373385287    1.52313261604050    0.07650600134696
H          -0.94349498900631    2.34961282268321    0.20086076068846
H          -0.31046267235732    0.98183023727269    0.97827112550397
H          -0.75915782733377    0.92274039982714   -0.67772728932427
H           0.63246331606671    1.77650281639921   -0.24866226108781
