    26
        -50.45472192  Gyration_radius:  2.51432725501 Dipole_moment: 7.539
 S          -1.60837464500433    1.20390091159702   -0.65930518407627
O          -1.12145545884965    0.04949572174320   -1.42349608910018
O          -2.34399797930331    0.85342410921485    0.51873002958321
O          -0.52371708470868    2.16186749063720   -0.45475783502007
O          -2.63647239092743    1.94329889232223   -1.62541866945092
H          -3.48113427913619    1.73934966476820   -1.23641317022881
O           2.44403562609886   -0.29893231475191   -0.14671147233545
H           3.34329772839222   -0.35343768865604    0.17789568957399
O          -0.71129806402034   -2.90718246193294    1.76339987219888
H          -0.38385982263222   -2.72532654145442    0.85632764825807
H          -0.07301080003839   -3.49382193675509    2.17092618814013
O           0.32717079270419   -2.13168703420270   -0.60280235560086
H          -0.32774004347107   -1.47838616211409   -0.89734239380361
H           1.13256813729413   -1.63328470006828   -0.40427429608744
O          -0.90192520485200   -0.29653959542953    2.55535336006602
H          -1.56985866227223    0.08489579904138    1.96315454229553
H          -0.90116811033673   -1.25500178025812    2.36781373807138
O           1.05119498134428    1.07450071902300    1.48521194482674
H           0.41038130486735    0.53357446506897    2.02041021619020
H           1.91757013351376    0.20669358928508    0.56474977058761
H           0.48436800111694    1.63209191370873    0.92760330687814
N           1.14008149035185    1.02739069584965   -2.02771791638578
H           1.49861982703706    1.30918816650156   -2.93277840991020
H           0.72494263760304    1.81157461556891   -1.45867397642225
H           0.26447408998595    0.42171411150335   -2.06909776443231
H           1.84530780624100    0.52063934864322   -1.43278678334542
