    26
        -50.45472191  Gyration_radius:  2.51436231424 Dipole_moment: 7.540
 S          -1.74401990594609    1.02860273065994    0.60915957247884
O          -1.02540869150930    2.26632369723868    0.55198072880140
O          -1.68153112405285    0.24518122053076   -0.63025458968310
O          -1.42947532747819    0.17788730093979    1.75511297846696
O          -3.28003940438202    1.41082590743169    0.78680426751208
H          -3.29546703121464    2.33991437605778    0.57979850760470
O           1.15805932974517   -2.17581671096940    0.10449205819069
H           1.86386176454564   -2.78556301605541    0.32153363485474
O           2.16369561169289    1.56537355360571   -2.22233165871800
H           3.01332565042745    1.23343340643584   -2.51484403976766
H           1.53054494096260    0.81975364291156   -2.30132034701898
O           0.48539554627699   -0.54443880338410   -2.11706212686086
H           0.83669030783454   -1.14830958380122   -1.44741509984963
H          -0.30731445143209   -0.14205961938751   -1.72696732282286
O           1.71281844135933    2.07695260459507    0.42609967024203
H           1.92718367311327    2.00098069008094   -0.52370498264354
H           0.78066941110224    2.34544613324282    0.46260320454014
O           1.27163668179443   -0.17608083489052    1.67873193442789
H           0.34822341596700    0.01917163552421    1.90743602661569
H           1.28129430060208   -1.37187742585153    0.71881633978629
H           1.59703471002179    0.65812777270536    1.24532877659428
N          -1.45795457845417   -2.03010056336495    0.46914671687274
H          -1.67691352641540   -1.28369158132731   -0.25904456692802
H          -0.45840615514175   -2.32691961780436    0.32465003070171
H          -1.50066084116919   -1.40015245715371    1.31313271595361
H          -2.11324274876207   -2.80296446753176    0.48811757091147
