    26
        -50.46194856  Gyration_radius:  2.51148037779 Dipole_moment: 4.750
 S          -1.14237189097041   -1.77786960583409    0.19271089257120
O          -1.06295495213225   -1.57082519158313    1.63496041050428
O          -2.10741313463917   -0.88464564949312   -0.42339583180833
O           0.16101661875275   -1.75787550529906   -0.43563990571272
O          -1.70039805623171   -3.24592129674895   -0.02123805100617
H          -2.61052008973117   -3.19790202144218    0.25626259933903
O           2.39846411381330    1.71138790196561   -0.96574024792005
H           2.51375521333907    2.48508649022965   -1.51803392721935
O          -1.62591659711948    1.19927966562507   -2.13288373947157
H          -1.61977340282425    1.86405521805817   -1.43882308973011
H          -1.95548238511664    0.39100802820455   -1.70680405880065
O           1.25490960322884    1.66765045479047    1.40741480371166
H           0.29883263913328    1.69433054457799    1.20112287286217
H           1.72327645975366    1.80311347324238    0.54770254851603
O          -1.39322731654975    1.28631093203534    0.93903342260357
H          -1.66343893992983    0.48460257025192    0.44706514243266
H          -1.77744581878046    1.18608818529777    1.81206895812784
O           0.85194810263045    0.08438656206135   -2.32818878262540
H           1.87081753105578    1.06611083857936   -1.50813756279793
H           0.64569429673022   -0.68177969078794   -1.76850092755953
H          -0.00100447595268    0.54556744825114   -2.45086726288609
N           1.42734049527124   -0.88127284026624    1.67859505162823
H           1.45239339210037    0.21731590656715    1.63855794529345
H           0.45148618450797   -1.16829688639985    1.96265905343697
H           1.45910645944309   -1.24420235806041    0.71111129021032
H           2.15090595017098   -1.27570319381784    2.26898839636912
