    26
        -50.45689018  Gyration_radius:  2.60232110486 Dipole_moment: 5.430
 S           1.19450707570304   -1.68154243955285    0.58444994016368
O           1.73675373168675   -0.78215987676044   -0.41264091868055
O           1.15259430553663   -1.04728611442906    1.90014864908314
O          -0.08810418558775   -2.24728694674176    0.20342782116901
O           2.18765400825546   -2.90832868850022    0.71366873644440
H           2.98200263490981   -2.49666422245762    1.03834769614288
O           0.81666059391765    1.91167585869801   -0.99485807522899
H           1.69183850913606    1.56544095458893   -0.79124687992772
O          -1.65627544155854   -1.67357016234303   -1.96380815551085
H          -2.37243383844082   -1.30358017563313   -1.44098237764747
H          -1.05134151143136   -2.08067638910189   -1.32064334640012
O          -0.08446511529396    3.68191370821752    1.06660725535651
H           0.25171424662562    3.36625359271546    0.21574089213139
H          -0.07630454195757    4.63874113340813    1.02964293842779
O          -2.25779494359494   -0.96022589180546    0.93907702558507
H          -1.48412325965665   -1.52249705305313    0.69170694346482
H          -2.67095261435202   -1.39416263424189    1.68684450539080
O           0.39861285242058   -0.03058015997855   -2.66691720478932
H           0.99639495887797   -0.48517230689551   -2.04820340125571
H          -0.42737787894398   -0.54783493648041   -2.63460325019060
H           0.52776119284467    1.33666669075614   -1.75628883044179
N          -0.36648676739317    0.94219684933149    1.20631287708315
H           0.31014627697167    0.23460277873870    1.61706039750848
H           0.01460930605468    1.24459442228812    0.26841060873057
H          -1.27490127951739    0.44790851640956    1.10091026583993
H          -0.45068831519414    1.79157350285201    1.76783587755223
