    26
        -50.45493808  Gyration_radius:  2.63807163895 Dipole_moment: 5.972
 S           0.72305344822617   -2.46938053162062    0.74711550654260
O           0.70785239912848   -1.87595070373585   -0.57525804262356
O           1.65150467387858   -1.73310586295575    1.61634951207354
O          -0.58798923219281   -2.62374330197650    1.33431011417423
O           1.32419508493195   -3.93029191212888    0.59553198086521
H           2.11887468622429   -3.79137536362462    0.08863322727681
O           1.39259132514483    1.43537625145748   -1.32991696414619
H           2.26285802082135    1.18846778972353   -1.64392459737552
O          -2.25823313820640    0.93395714691220   -0.93593133763081
H          -1.81001719336339    1.75665182250888   -0.67838996049006
H          -2.26272792661286    0.38397795161102   -0.13893888010666
O          -0.57705769804553    3.09377858913801   -0.33467498340248
H          -0.84146349356929    3.84751479614234   -0.86397273207403
H           0.18170465024883    2.69156314656822   -0.78607872149598
O          -1.71497771286389   -0.32287124318099    1.47480886042225
H          -1.35313646386375   -1.24777163317433    1.37706204309860
H          -2.29091719377158   -0.34797181750069    2.24078246670576
O          -0.27641650943604   -0.16639304226093   -2.38425969385939
H          -1.12348438770575    0.15087300516899   -1.99905540712227
H           0.73952581463410    0.82562387027501   -1.83297649040691
H          -0.01030879973297   -0.93399417770245   -1.84492136347874
N           0.80627753086337    0.64961508467664    1.18077266223409
H           1.25631886224185   -0.31037557416283    1.39396308837889
H           1.05279225574058    0.93582109502512    0.19742017896067
H          -0.22000343265798    0.49864663293768    1.26327259565510
H           1.10918442996842    1.36135798179438    1.83827691776288
