    26
        -50.46928672  Gyration_radius:  2.50240007414 Dipole_moment: 3.645
 S           0.48226085367994    1.98819374294546    0.52839412139462
O           1.82616218250150    1.48284506854361    0.72979438344369
O           0.14619152030604    2.14665663370325   -0.87299923926013
O          -0.51273301494189    1.22429718599588    1.27054298341151
O           0.43824128550088    3.44078057215101    1.15840415481761
H           1.01662871192053    3.91806937257681    0.57357347446743
O          -2.14153875146617   -1.10592681668735   -1.12494197640281
H          -2.50208569633459   -0.19748127501258   -1.00523545661682
O          -2.49924488433165    1.47839243732858   -0.51837017265167
H          -1.94749854932609    1.93181706040818   -1.16569501935136
H          -1.93596930973923    1.45653906102199    0.27561445912716
O           1.15538731928909   -2.80843985719345    0.70913538331981
H           1.02236654879453   -3.34751131425620   -0.07346261324192
H           1.76595948847495   -2.08715021298866    0.43759220528072
O           2.60485746074398   -0.77628483771978   -0.23657735702989
H           3.56295528961762   -0.74753929320493   -0.23590425834647
H           2.31053231381475    0.08568299610332    0.16414013950585
O           0.32770405874383   -0.34404044339375   -1.83872745854821
H           1.18159421282417   -0.62922166978565   -1.49125835956686
H          -1.29357003516725   -0.96181595339578   -1.59462689586750
H           0.26255425125488    0.60282473638796   -1.60986975191211
N          -1.05761858833340   -1.36697041347796    1.20985087142959
H          -1.59620418236790   -1.36841758208202    0.26366894023558
H          -0.20654877864647   -1.97239148658335    1.11708787508161
H          -0.76496726257409   -0.37014182234815    1.35288923613175
H          -1.64541644425231   -1.67276588900035    1.97698032115592
