    26
        -50.46282808  Gyration_radius:  2.50936324581 Dipole_moment: 5.042
 S          -1.30597330027828   -1.64562225676520   -0.29185118790205
O          -1.45715875097649   -0.23364927554006    0.01717950793822
O          -0.84824042466310   -1.90622126869268   -1.63663155006982
O          -0.48135010412263   -2.31221415475558    0.71548189458232
O          -2.75257745328152   -2.28206282438423   -0.18736678029923
H          -2.65277267159624   -3.02915936424818   -0.76726931855186
O           1.99027223940629    0.82861595620708   -0.68221944041245
H           2.82583342602921    1.07531568921027   -1.07999120105896
O          -1.73973955752641    1.66308177790763   -1.87122078621523
H          -1.83876091679202    0.92651498640340   -1.23854532563273
H          -1.55319621664751    2.43823295196172   -1.33524095184990
O          -0.09565830076116    1.95264858803027    0.80374109472755
H          -0.68105136698948    1.20871247014322    0.56540719724659
H           0.69432717044703    1.82764430611917    0.25682016319629
O           0.58506833241282    0.87012608373865    3.09846736140409
H          -0.23429662727821    0.59915388590192    3.51622234782450
H           0.32245152505186    1.45847088848452    2.34184477524416
O           0.42874889896532    0.20322493813577   -2.60303510311163
H          -0.31259228401934    0.84071111725870   -2.57673702241913
H           1.38241674963117    0.57254635766458   -1.45746977668036
H           0.01296554501095   -0.65142006265669   -2.36251050110540
N           1.56488043956185   -0.88854317167511    1.35843095894086
H           0.72769665845234   -1.50980293121926    1.08794171642351
H           1.81278251919152   -0.28302398604509    0.54182401123538
H           1.25358014473552   -0.25941123065223    2.14981455017254
H           2.35234432602416   -1.46386947045795    1.63691338637000
