    26
        -50.45446509  Gyration_radius:  2.59493444765 Dipole_moment: 6.560
 S           1.50293483683384    0.66830141430681    1.86367626691241
O           2.80255655036062    1.11269942372697    1.45505072450004
O           0.43933183533573    1.67349544091112    1.73693905866483
O           1.07219264741498   -0.59454252096737    1.27046751937029
O           1.60433366729947    0.37859120168440    3.43422813524580
H           2.50293871841295    0.60294789036584    3.65850082707694
O          -2.10438037101942    0.29063455329640   -1.52838390729733
H          -2.56345245152020    1.04945291182044   -1.88927535567954
O          -1.82315266006612   -2.39350485154969   -0.83513211502535
H          -2.04908746173686   -3.07742668026607   -1.46723827366311
H          -2.06791408987228   -1.54828562078580   -1.24171347886219
O           0.94103862691030   -1.91072768349123   -1.09922262110919
H           1.22213084884542   -1.52281753610331   -0.25521038411302
H           0.05276596722082   -2.26556054418363   -0.93427044929953
O           1.46378340104163    2.08915463137218   -0.72608341415605
H           0.94812895600408    2.21200986699265    0.08449936363851
H           2.32953187385813    1.81755379364159   -0.39795610552995
O           0.27580808542719    0.32399197935124   -2.39898595607171
H          -1.15936147227634    0.31921175430033   -1.93289674955804
H           0.75223123214175    1.02437598627507   -1.90872771194131
H           0.64288419559434   -0.52686042528154   -2.06310736244674
N          -1.40548611249766    0.05024003635877    1.03752447455572
H          -2.13641458663330   -0.29311215125211    1.65064275459900
H          -1.75480984463455    0.18268713120818    0.05105854550533
H          -0.92203361011168    0.92266726184482    1.39695777097543
H          -0.56649877233149   -0.58517724357377    1.03865844370431
