    26
        -50.46627103  Gyration_radius:  2.44581781003 Dipole_moment: 6.884
 S           1.53567877879391    1.26555732889632    0.09607360031379
O           2.52212477823225    0.84695753462187   -0.85767759276883
O           0.30289027610885    1.78423953900456   -0.47973065687310
O           1.21911398169388    0.24717826659958    1.10324411788360
O           2.18830429080099    2.46980590043263    0.89682727211421
H           3.05819972954286    2.46968493069678    0.51386530265029
O          -1.68981258100307   -1.86771067370263   -0.02359778405811
H          -2.40272188749168   -2.38912512472983   -0.39300784199251
O           1.11342163114507   -2.39588144316694    0.35076638229775
H           1.30772526692500   -1.51238983622809    0.70249625935558
H           0.15072867177023   -2.45105591788571    0.28991319713101
O           1.60062803425043   -1.37387915154971   -2.14423151391509
H           2.09285325759166   -0.59160471309604   -1.84342677221403
H           1.58355062742575   -1.97006706941416   -1.37200959442463
O          -2.01854642476427    2.31872668028505    0.59484356844437
H          -2.62710156020139    2.32264195646460   -0.14694769092098
H          -1.11744879079182    2.30852604488052    0.19437949666658
O          -0.77456878609082   -0.28814494340300   -1.82751376944573
H          -0.44059116923340    0.53403146152905   -1.42687354580950
H           0.04574158103574   -0.74970580064728   -2.14114534537933
H          -1.35665368801256   -1.27317199620456   -0.77428357649426
N          -1.28032620338263    0.05373347154513    1.76425995851569
H          -0.23133515157456    0.15910649171998    1.57248227680593
H          -1.59734784076857   -0.76301883077110    1.18939651321298
H          -1.45157042553471   -0.09118721835648    2.75304984178869
H          -1.73293639646564    0.93675311247957    1.40884790711365
