    26
        -50.46245818  Gyration_radius:  2.53014182623 Dipole_moment: 4.459
 S          -1.08154166543703   -1.96323058837050   -0.14331658669552
O           0.24106442048103   -1.86609966821966    0.42950623254248
O          -2.09665145067507   -2.39947007710037    0.78971390728524
O          -1.45944864998912   -0.70682254160562   -0.80719662043660
O          -1.00562482745214   -3.05371148002288   -1.29092787155759
H          -1.91685277762294   -3.25125591528925   -1.48767308206000
O           1.94781708334341    1.40428268562642    0.68385050449883
H           2.60723842414644    1.26152199735446    1.36315814658904
O           0.16330786061796    0.63515091886220   -2.49835099345379
H          -0.52746448758221    0.09976108155301   -2.07168322416108
H           0.09798921735815    1.51056746358299   -2.08415852083732
O           0.34884234255750    2.98293319400310   -0.93403950540425
H           0.74531638054796    3.66005306638628   -1.48400198554993
H           1.06461793586911    2.60424704634593   -0.39999181244126
O          -1.05370925369771   -1.07285864639222    2.79602380210265
H          -0.20197934780445   -1.52026736222424    2.79329574435543
H          -1.60109237247779   -1.61294410721558    2.17950832360965
O           2.05636733569814   -0.51297968554373   -0.98842419577892
H           2.08027070597286    0.65212944569409    0.00389183566082
H           1.48431827729496   -1.15206995599696   -0.51734814294014
H           1.49991828764447   -0.16128515461395   -1.71976984462912
N          -0.68145452150476    0.91814993946146    1.08820485312918
H          -0.84882679293909    0.26137697404549    1.90253426439676
H          -1.00919261692371    0.37658164003526    0.23680014156183
H          -1.19808741563195    1.78880173120108    1.16821528825532
H           0.34485788820765    1.11743801845850    0.99217934194325
