    26
        -50.46234129  Gyration_radius:  2.50633177312 Dipole_moment: 3.976
 S           0.13995002909031   -1.87013348834954    0.97240171193219
O          -0.34848887549360   -1.87446415667428   -0.39612741018829
O           1.58356830189681   -1.65913235444808    1.02649868297540
O          -0.57676790523150   -0.95291976115388    1.82804262890867
O          -0.11493111401217   -3.32514368679909    1.54443593901608
H           0.43321737833535   -3.84980167083108    0.97043231681735
O          -0.37268401598352    1.98221561214042    0.20530270895132
H          -1.20403573609689    1.64519192163131    0.58511793526014
O          -2.52076455534246   -0.50946213006533   -1.59395248223675
H          -1.98212121158468   -1.24862296412180   -1.27863995415933
H          -2.77357134783454   -0.03489108317599   -0.78990327198823
O           2.55263814982074    1.37537641681832   -1.66566493554734
H           2.45824711548823    2.27015942766134   -1.99796768732803
H           1.74496347637849    0.90143621186840   -1.93766694607281
O          -2.54070520122199    0.54949724428575    1.03099606807364
H          -3.14228148145197    0.66326657058225    1.76772660937268
H          -1.85158074329979   -0.09208268266292    1.33519329523843
O           0.06115328377498    0.29412099812781   -1.86326199036458
H          -0.28829047395334    1.51107340428485   -0.65093100856331
H           0.09803894581388   -0.53755711746259   -1.34127877358867
H          -0.83842496102950    0.25694421090901   -2.23325691501804
N           1.91194807252007    0.90998319553399    0.91896238802648
H           0.94558784036735    1.35557370407446    0.83680534416892
H           2.38594858000871    1.09832119617390    0.00643869659334
H           2.43537281645433    1.28929032316876    1.70002060523043
H           1.80401362267195   -0.14823933145730    1.02027643450261
