    26
        -50.46548013  Gyration_radius:  2.52098270825 Dipole_moment: 1.493
 S          -0.20176613256612    2.06158272955008    0.07969677646048
O          -0.50676742486016    2.08985951328350    1.50567461814655
O           1.10883607141694    1.51024489537697   -0.17987503616990
O          -1.25471908459123    1.42481750548371   -0.69558057983839
O          -0.16361752261189    3.56900114402232   -0.41136181062553
H           0.66047489841748    3.86711370634271   -0.04145088284412
O           1.75287836117897   -1.39684843952454    2.30053812472521
H           2.43484051387635   -0.83389425441400    2.67026794809599
O          -0.04946726373304   -1.93443959410889   -1.89734575202742
H          -0.14679979823416   -1.07295670210643   -2.37360532962551
H           0.16487895610257   -2.59317155655804   -2.55892091178523
O          -1.85866742427821   -1.08395622750717    0.01172714739452
H          -1.81283000460647   -0.15723964092617   -0.30066155623172
H          -1.28606464627020   -1.58173513602311   -0.59441049502583
O          -0.45754692156827    0.44628031729894   -2.99813770596041
H          -1.22132676492950    0.58800948328655   -3.56071993374406
H          -0.66205762505234    0.90636451982287   -2.15224727232486
O           1.98887193435804   -1.01709130406058   -0.25543546773236
H           1.89531714975988   -1.36491248882959    1.30998853621518
H           1.32010711722009   -1.44906473476970   -0.81227733280220
H           1.77381031837490   -0.06425470070288   -0.29148389826483
N          -0.69954347999297   -0.39207810278455    2.27291953212685
H           0.26803966444896   -0.81366556089042    2.36479375095488
H          -1.19479359168090   -0.82072096770771    1.43578282447150
H          -1.24006211599624   -0.53207602175316    3.11961577468582
H          -0.61202516421161    0.64483162829231    2.05250892174713
