    26
        -50.46361284  Gyration_radius:  2.4927019987 Dipole_moment: 6.647
 S           0.51762952158353   -2.29529739298076    0.07016138240928
O           0.78915384574151   -2.36087788587214   -1.34618439500609
O           1.68570342596797   -1.86720394288780    0.84176998891032
O          -0.65156985318519   -1.50529348219975    0.41809374398423
O           0.19980939756976   -3.78093269798049    0.52649621678908
H           0.78694521247261   -4.27166928733013   -0.03859274366311
O           1.03577444315869    1.88921113627687   -0.81450600913500
H           1.61658876410809    2.44474494061340   -1.33558577184577
O          -2.17199978107357   -0.10477422153085   -1.32380478437294
H          -2.19161795828790    0.71963825278527   -0.81764146671919
H          -1.77437701606422   -0.76221775939871   -0.72471589544847
O          -1.52022074954820    2.27050216811815    0.09441989603303
H          -1.89495286985043    3.09606657646081   -0.21442124274688
H          -0.60799523028347    2.21925856584840   -0.25327797080753
O          -1.11512218806136    0.44999256658268    2.17233329979862
H          -1.13717438666414   -0.38354525465172    1.65928690962701
H          -1.50631377048491    1.11949760087024    1.59104476316108
O           0.28513044448756    0.02858843529327   -2.36924854275766
H          -0.68837755394392    0.00854590914957   -2.22643259523303
H           0.76773076421222    1.11999437924255   -1.43918831374920
H           0.57649859875376   -0.86611741473878   -2.09326027925120
N           1.42284829452137    0.58948055897094    1.53934918317647
H           1.59387098552780   -0.44226922408352    1.27712950273158
H           1.42433861651649    1.14757618231778    0.66208859809054
H           0.43605315143308    0.62010608878907    1.94838790783550
H           2.12164588163249    0.91699520247176    2.19629859819974
