    26
        -50.46794344  Gyration_radius:  2.46400081108 Dipole_moment: 2.598
 S           0.25777106808288    0.72583644987062   -1.67525021456366
O           1.12114317654290   -0.44001478705594   -1.53960313364803
O          -1.04991973705325    0.38277781241085   -2.18461676513656
O           0.22555346754565    1.50338638094089   -0.44598432474629
O           0.92805520518255    1.67375953512963   -2.75181996184371
H           0.68635683604915    1.26051663065852   -3.57428728018153
O           2.23663574379715   -1.91614323018386    0.40934653712665
H           2.05450962346701   -1.38951372936097   -0.39211440877296
O          -1.71567064098290   -1.36485830186502    1.40730575828968
H          -2.21617079040747   -0.60873053359530    1.03264639613802
H          -1.46574235553487   -1.89457024406258    0.62318914065690
O           1.05734974506861    2.56593951075140    2.00846168471486
H           1.40297436966907    3.45722139607573    2.06704377430844
H           0.80085593356888    2.43111786511035    1.08487291442536
O          -2.49324816292563    0.80736097777501    0.02721649640046
H          -2.09767675503382    0.63849405433779   -0.84961667023206
H          -2.03889725020734    1.58727380439091    0.35422654436114
O          -0.80773732183929   -2.20653239593716   -1.00342449125696
H          -0.06840235517762   -1.61580905075918   -1.24312761284834
H           1.80133119316561   -2.75989393233592    0.26370158387662
H          -1.52030146648941   -1.94436424263362   -1.59200389212665
N           0.59146190215287   -0.18222935905866    1.62489352909511
H          -0.35187972096021   -0.68678514381933    1.72675192811369
H           0.83194406526841    0.39395185497462    2.42925418650500
H           1.33620345441704   -0.87682798445890    1.38749373276667
H           0.49350076261557    0.45863663264505    0.80544452857475
