    26
        -50.45505356  Gyration_radius:  2.43393922624 Dipole_moment: 3.298
 S           0.52042032517392   -1.83661650452454    0.57682613639816
O          -0.06337475186337   -0.63152279613166    1.18652400924510
O           0.26674611180906   -1.82465113736632   -0.86570871489420
O           1.89470514304913   -2.02508916636569    0.92239445547766
O          -0.29757603031911   -3.05761851910087    1.14634871251833
H          -1.20139378035605   -2.89507696037259    0.85732581732359
O           1.27855502163034    1.89538510401116   -1.19770521954247
H           1.88755904955443    2.26320839389422   -1.83953366074313
O          -0.79072630845605    1.93259604686460    0.74261120577805
H          -0.09990507670373    2.27869531522098    0.16523792806216
H          -0.45961655742209    1.07047198827550    1.05427291633826
O          -2.49681940904462    0.79043009604141   -0.91636516028806
H          -2.71847374154662   -0.02819889611483   -0.43095417895712
H          -2.04537708628908    1.37256985900591   -0.25329512568699
O          -2.49493129888574   -1.33738883055869    0.78431057589520
H          -3.02296779439776   -1.24223005925634    1.57959976794797
H          -1.59037565355939   -0.99454384445384    1.00408098445285
O          -0.40501755287364    0.18326863980517   -2.13547626056552
H          -0.11818640023707   -0.70473502800520   -1.64277653060760
H          -1.35304255045206    0.44264445466718   -1.71301285877344
H           0.25542847392769    0.88651002433582   -1.81945944941963
N           2.67643388017929    0.65821332429553    0.61135405248653
H           2.39232726086334   -0.32420397650702    0.66213070958334
H           1.84311466284710    1.39590981412241   -0.50503935363413
H           2.45763732505466    1.06067265520306    1.51552681572120
H           3.68485674831554    0.67130000301377    0.51078243588530
