    26
        -50.45694544  Gyration_radius:  2.75321976052 Dipole_moment: 5.179
 S          -1.55720178980976   -2.02829589205652    0.59724710860113
O          -1.55042855337272   -2.31114719031825   -0.83344949997016
O          -0.22542525106228   -2.24488208745402    1.16865698019769
O          -2.11158961487059   -0.73980849680755    0.92825341045685
O          -2.49461521732768   -3.12229007367864    1.26350520875649
H          -2.03911015202801   -3.93120775957844    1.05146344072133
O           1.08167143578672    2.67726650963597    1.89180753729409
H           1.05437710762326    3.61989416237945    1.72280803914342
O          -0.00165839773079   -1.00350703184734   -2.40225887824988
H          -0.63001628431833   -1.50317913104485   -1.80187218395781
H           0.00598765009823   -1.50071949397906   -3.22155069976510
O           3.08411367060196    0.94895077420313    1.33467166931135
H           2.45315086989052    1.66224913753317    1.56933820277692
H           3.37417685497065    0.56937564078828    2.16572069093303
O          -1.06318165670049    1.51212104105773   -2.31627844985967
H          -0.56981790907300    2.03226004308063   -2.95158795935837
H          -0.76040262148903    0.58722030471610   -2.41104180032560
O          -0.89029773465667    1.50367997923785    0.38526585239739
H           0.28359652303165    2.30194741762487    1.47747670646740
H          -1.13275708609518    1.67737569900621   -0.54433425139878
H          -1.48152996059293    0.77102029120336    0.67849284621728
N           1.06369887504395   -0.29873640853493    0.04049006463712
H           1.10598927811260   -0.54232097311524   -0.95415101603261
H           0.36382469513459    0.48072395149218    0.16395247221119
H           0.66091445078254   -1.13192980339272    0.56631065410683
H           1.97653081804839    0.01393936985007    0.43106387464346
