    26
        -50.46906522  Gyration_radius:  2.55479104267 Dipole_moment: 1.410
 S          -1.41726744396914   -0.75429103199715   -0.03647636429672
O          -1.55075190366554    0.36467553319588   -0.96442207209664
O          -0.40117246761033   -1.69825675717246   -0.48489006713903
O          -1.15489904642401   -0.30140789031962    1.32159766725334
O          -2.78485896495244   -1.50409050578150    0.00477834825626
H          -2.97278536663077   -1.63674768612267   -0.94431205248633
O           2.77432926832287    0.67161174223424   -1.24455043117248
H           2.77605892770040    0.49023771479895   -2.18557465303242
O           1.15728459585862   -0.29511725485629    2.69344100142159
H           0.24277765991382   -0.47439721594309    2.39899807711854
H           1.20389576975834    0.66696272364936    2.73894940121678
O          -2.90749652726634   -1.14118923936572   -2.61182988335396
H          -3.66636616665072   -0.66661889805689   -2.95892858819525
H          -2.30708733392701   -0.46586418878370   -2.23310561571691
O          -0.18827311713945    2.12057206976042    1.80992611912868
H          -0.64666503666036    1.27187923952101    1.61983133971208
H          -0.87637727083558    2.75486522282882    2.01516313467960
O           0.56883008612539    2.00061421649868   -0.82437745680581
H           1.98509898699772    1.26197527041626   -1.08909196567839
H          -0.20636649869465    1.43362583684898   -1.00539261917616
H           0.47414276393281    2.24508830716987    0.11234184234072
N           2.00636238581629   -1.28154451001454    0.37586993240522
H           1.85040432175324   -0.89141166383879    1.34374173070741
H           2.58725886862714   -2.11191393250774    0.40636878237103
H           1.03349901346965   -1.51733807886011   -0.00222684254489
H           2.42042450621862   -0.54191901328883   -0.25582876492917
