    26
        -50.47080937  Gyration_radius:  2.42843166159 Dipole_moment: 4.794
 S           0.01666153378479   -0.58367950766182    1.74290082930183
O          -0.94284019387521   -1.44890116403012    1.06854326005028
O           1.37605214462601   -0.86140928869533    1.28879173593457
O          -0.33896181793849    0.81200375308268    1.67193792608119
O          -0.01550555066675   -0.98214217895507    3.27059909891751
H           0.31550696456424   -1.87301488235122    3.24246275150786
O           1.19188409311418    1.86480922556779   -1.57286183345422
H           1.63118971952295    2.09632463170005   -0.72756173196961
O          -0.83507063621108   -2.09352991571718   -1.55626512488901
H          -0.87005194505686   -2.11011886762575   -0.58089296906513
H          -1.63078760034958   -1.61387901926618   -1.81248112006494
O           2.04259785259167    1.84969761174846    0.99172734937028
H           2.53971608036806    1.05094241385567    1.18793593589194
H           1.15196934526121    1.66663978045040    1.34163307266161
O          -2.83413708645445   -0.34911712337763   -0.47360040746685
H          -2.20825587953212   -0.70999260729992    0.18890057312231
H          -3.65919992045747   -0.19657735960690   -0.01123467748743
O          -1.29293187026739    1.92841083538156   -0.64024570472290
H          -1.92947366521436    1.22539768660846   -0.84656095255350
H          -1.01563965128925    1.74027831045932    0.27100832473731
H           0.23473575709351    2.02067926453613   -1.39587652631867
N           1.42755425562287   -0.69754265299969   -1.34902742853978
H           1.33174986216386    0.37118452653347   -1.55189609502437
H           0.56397543350144   -1.22171303626245   -1.63724143676127
H           2.24789655629455   -1.08037706966832   -1.80637077830196
H           1.50136619879467   -0.80437337640249   -0.30432407097482
