    26
        -50.46692822  Gyration_radius:  2.49790349694 Dipole_moment: 3.186
 S          -0.98840668320182   -1.63415059851432    0.86224952233640
O          -1.05849289622842   -0.59919128127159    1.88611239469967
O          -2.08132267859873   -1.56275782575345   -0.07419220354572
O           0.33753972324590   -1.67006177259462    0.25442941903117
O          -1.12589187355672   -3.02642413341859    1.61123033404031
H          -2.06671796678879   -3.12824589746237    1.71583877334545
O           2.37031152460564    1.39369990431571   -1.57695689766599
H           2.76615873732375    0.86857813735178   -2.27431036858074
O          -0.53086858711434   -1.37646933988215   -2.26920927666077
H          -1.39455189690471   -1.47091192907291   -1.84076787676397
H           0.07596965575676   -1.63433988997835   -1.55897148942383
O           0.24745173415419    1.72413028103668    2.23143607263393
H          -0.30725845217440    2.25335345550801    1.64841676305914
H          -0.26483644357581    0.90720918119506    2.38393801708247
O          -1.78709674097912    1.27749101679025    0.13862298672012
H          -2.61004605771213    1.03389202522414   -0.29095936892848
H          -1.59778824320656    0.54224561156840    0.75192500718620
O          -0.16531066302553    1.28663867427688   -2.09149708857169
H           1.40048003734618    1.47121552542947   -1.81982435534157
H          -0.30649697716059    0.34343286054215   -2.32665490101652
H          -0.71466301884797    1.43595422312914   -1.30247741111737
N           1.98214551859376    0.31274021464552    0.79557683060638
H           1.36734403095914   -0.52737139645312    0.61131136432776
H           2.81924131668965    0.03382000286432    1.29560111033485
H           2.22501012883901    0.76069903891230   -0.13862307804636
H           1.40809678152626    0.98482391162096    1.37775572023014
