    26
        -50.47208075  Gyration_radius:  2.44941848761 Dipole_moment: 1.520
 S           1.05681565863675   -1.23055148284191    1.34304091159767
O          -0.24125962924490   -1.80148859093552    1.64930256296952
O           1.38388450308517   -1.35269956031456   -0.07323509665414
O           1.22654070674032    0.12550303693410    1.82594793789099
O           2.11613993780967   -2.10540411051562    2.13244526386380
H           1.78433096141740   -2.99018705384240    2.01919379779401
O          -1.57029643851091    2.00879911591394   -0.19763482590707
H          -1.76515064783759    1.45361052258964    0.58915832579899
O           1.41412753391042    0.45164857514587   -2.08240633575647
H           1.57295435071809   -0.31005629626803   -1.49419326681002
H           0.48046847142229    0.37381816364323   -2.34881774780614
O          -0.98194059888612   -2.10798653775318   -0.96689092122964
H          -1.39401228694808   -2.20389650171133   -0.10128742545267
H          -0.03956096491065   -1.95295526772008   -0.74896611447509
O          -1.63498048054967    0.42797315099541    1.97031964155728
H          -1.10258344759618    0.87108573238213    2.63440596815518
H          -1.20867758243460   -0.44564142828308    1.85758969880759
O          -1.34335977164453    0.16420580956663   -2.22999666164538
H          -1.89374084269466    0.02299412118060   -3.00099633973455
H          -1.64792156251214    1.41573146123008   -0.96579619567203
H          -1.28821707235196   -0.71127296260473   -1.76211740659255
N           1.03493157142542    2.01097355448772   -0.00431529844184
H           1.32105898323204    1.52786971315860   -0.90763649109793
H          -0.02389336732236    2.17230559094690   -0.06494498954353
H           1.19538068081230    1.31643976645785    0.77217081634225
H           1.54896134424565    2.86918146813533    0.15566020205899
