    26
        -50.46600682  Gyration_radius:  2.60600597021 Dipole_moment: 3.832
 S           1.37922359455700   -0.16205495241915    1.21166809157850
O           0.62903667233425    0.96334428032498    1.75265676530263
O           0.72105462378302   -1.43246866351085    1.54626723169555
O           1.60820646825383   -0.05265673058649   -0.21664709490547
O           2.78410591083668   -0.17564385398269    1.89927084918346
H           2.56738327173499   -0.26190005393302    2.84847101130487
O          -0.93409692606967    0.29526066700605   -3.37674261204293
H          -1.20679821320974    0.80916577770108   -4.13711200856159
O           1.22839599993032   -0.41012852471231    4.03153413106898
H           0.85300204093043   -1.14816502717290    3.53270229365192
H           0.81106289543906    0.37513069923683    3.65187421594638
O          -2.28236280891695   -0.51079238357017   -1.22890385979046
H          -1.99178787205615   -0.19896544937623   -2.11481949392167
H          -2.12278979695639    0.24079845415476   -0.62654636620166
O          -1.47033689325654    1.57886529216892    0.34192182194737
H          -0.68177585508147    1.34155529634375    0.89224656265077
H          -2.02105275844405    2.13399053868120    0.89636988303581
O           0.41140716400332    1.84686129909614   -1.71488661770093
H          -0.28652512592519    2.05009754991177   -1.07528350304891
H           1.02076113802419    1.26095360665863   -1.23026941564350
H          -0.34937957194013    0.89019326405651   -2.84000213604906
N          -0.14277115823877   -1.92445308641671   -0.83047968896647
H          -1.10105115825832   -1.43621175842522   -0.98451883105632
H          -0.09275050108260   -2.83180719415111   -1.28073326624316
H           0.59754854051864   -1.28154481112003   -1.15661425845540
H           0.07229032908703   -1.95942426595130    0.20857628522254
