    26
        -50.46862848  Gyration_radius:  2.47509320686 Dipole_moment: 4.009
 S          -0.85252158643612   -2.06471909352134    0.23670048884102
O          -1.70794270877875   -2.07827161471597   -0.93192187277626
O           0.54900575544799   -1.78706447436805   -0.12123807906392
O          -1.29100751849647   -1.21256190077552    1.30792445425221
O          -0.85911368706667   -3.55564888808094    0.78369795227702
H          -0.99066665952685   -4.04552310527866   -0.02121747687059
O           1.91037078633761    1.78639027923125   -0.77703197187820
H           2.58448994357720    2.23937592381457   -1.28377357972856
O          -1.85703532157617    0.44305053211147   -1.52432309781576
H          -2.74409004106380    0.63832837200656   -1.83141089689938
H          -1.85946202768200   -0.51269031018052   -1.27072411379069
O          -0.72669903325469    2.32037500507282    0.17734638810975
H          -1.19787861265338    1.68340762581268   -0.38664358830894
H           0.17615445645943    2.35712940219004   -0.16640070218527
O          -0.46047104045300    1.02563631959633    2.49120674902718
H          -0.69024501411979    1.66137380565230    1.77366920342236
H          -0.97342726857423    0.22391558539042    2.27718220713298
O           0.77001233718028   -0.07893354165386   -2.17931224661082
H           0.74892118207833   -0.82312860717178   -1.54532590027204
H          -0.15552134988907    0.20019686187429   -2.25281558154352
H           1.51089145443604    1.09697255150191   -1.38666208832177
N           1.65463099698407    0.09457617245534    1.33841672733301
H           1.24421629538460   -0.72728516714529    0.80923545639963
H           1.94169998511136    0.80275438688795    0.63623647411253
H           0.83988262862011    0.51155509660233    1.93417886644754
H           2.43580604794442   -0.19921121729549    1.91300623874343
