    26
        -50.47304689  Gyration_radius:  2.48618293649 Dipole_moment: 2.167
 S          -1.57914248316617   -1.28527053770999    0.59929919752466
O          -2.21099794883730   -0.33789658692821   -0.31153219009997
O          -0.23755773014748   -1.64091293228116    0.17741036242225
O          -1.66160940590451   -0.85539192356708    1.98013468234916
O          -2.42515817453049   -2.62292573481165    0.50098360193146
H          -3.21434402988432   -2.40036177859486    0.98348443239797
O           3.05214496008135    0.40468299251678   -0.76495379536224
H           3.51679667085955   -0.35122328100726   -1.12707568157106
O          -0.87067807459645    1.93328387521531   -0.00764719437515
H          -1.49748338122984    1.18560398560977   -0.10914841083172
H          -0.50483931498613    1.83793414267945    0.88999077754544
O          -0.05159086882263    1.11980435305045    2.46483935174032
H          -0.66877662101253    0.35207015013879    2.34888234432997
H          -0.24245097764643    1.48797406848967    3.32901811939300
O          -0.63815877116380   -1.02682170132457   -2.33323359296811
H          -0.28418206805062   -1.52405055624402   -1.57039012727891
H          -1.48378907923599   -0.71136554400495   -1.97034432140547
O           1.89016658581660   -0.52652517130635    1.37685438497696
H           2.68728451938698    0.09622427158359    0.11181997746533
H           1.42704182432262    0.15229979442686    1.89070905305479
H           1.17720229627017   -1.06659946760218    0.98489587302808
N           0.77731207205321    1.16974063236265   -1.90843209100968
H           0.88218834527143    1.82537030002124   -2.67447859299303
H           0.26653176821935    0.29092674488000   -2.21981212035548
H           1.71774510570806    0.90303273463544   -1.50836267831296
H           0.17634477121502    1.59039715976975   -1.13291136159891
