    26
        -50.46862841  Gyration_radius:  2.47521278333 Dipole_moment: 4.011
 S           1.43402327979142   -1.28372191578907    1.15865466702656
O           1.83823660814940   -0.13975543755565    0.32368501429847
O           1.06547551532225   -0.86385219129428    2.49484330172017
O           0.46305649952293   -2.09977973659415    0.48229364015388
O           2.74731980251042   -2.15874713518010    1.33716099432413
H           3.12877775991366   -1.75977763631981    2.11201584034421
O          -0.69232947160424    2.20700135941893   -1.44701137723990
H          -0.77549971218783    3.11164639960897   -1.74867647046351
O          -2.39540018371048    0.15786010824148   -0.42257662428327
H          -2.00706250089797    0.93885886598532   -0.83957690658905
H          -2.04041093533133    0.13852897342772    0.48261932292305
O          -1.15409727829421   -1.87195365895670   -1.62280800539326
H          -0.67683416150676   -2.23542814489409   -0.85348751781570
H          -1.81472578746837   -1.25410691337833   -1.23089086152288
O          -1.23025413304666    0.27525375171586    2.09245195737635
H          -1.80987084122875    0.07550988530569    2.82961329226355
H          -0.38733042178423   -0.21138647164641    2.26716605328911
O           0.45417957380977    2.09091852227134    0.88087640192873
H           1.09573645582524    1.36412243421137    0.75305291568360
H          -0.25659551622218    2.24678116144372   -0.54423949650788
H          -0.22023271582959    1.71553797779255    1.46757963538645
N           0.66279069072050   -0.08111898400083   -2.02332385939726
H           1.27687177653979   -0.17747740483871   -2.82353780421083
H           0.17639621040809    0.83557007703446   -2.02284892180299
H          -0.09094721906687   -0.87056129847522   -1.98587904970335
H           1.20872670570545   -0.14992261750553   -1.11715611178580
