    26
        -50.46907338  Gyration_radius:  2.47622381193 Dipole_moment: 2.897
 S          -0.30489863265103   -2.03797672037964   -0.85769607311411
O          -0.52220961012801   -1.55413453273397   -2.20015460708317
O           1.10919168965454   -2.16470194951746   -0.52333864881351
O          -1.02843297668750   -1.28799522098770    0.15872905555268
O          -0.90829003114142   -3.50512842761086   -0.80972018479332
H          -0.55522259731925   -3.87149673869889   -1.61324725942506
O           1.59192773442611    1.88305609409361   -0.31035764603276
H           2.20129377954835    2.48463769239072   -0.73931482185936
O          -2.27531331573732    0.92878456541163   -0.49854727139928
H          -3.21227074737616    0.75572252724221   -0.59563658302395
H          -1.85430093010079    0.06442351181682   -0.27491153752524
O          -0.67920453805550    2.18860427193687    1.38164321275329
H           0.13310231489672    2.28019592136508    0.86396368355070
H          -1.36106445677932    1.91472091048250    0.74638225807388
O          -0.30072653676291   -0.19159994824876    2.52725137908906
H          -0.76097478530438   -0.72147098400130    1.85227589462954
H          -0.52629387783559    0.74365639416187    2.30748382664026
O          -0.05491818617759    1.04826517959193   -2.12534330905179
H          -0.92034475401986    1.27891199409356   -1.75316733308690
H           0.98741967107806    1.54190094311430   -1.03618038587710
H          -0.11705371811636    0.08189682555202   -2.27793002857505
N           1.90409468135666   -0.36834935968212    1.16744788200785
H           1.64107717210076   -1.14214465435391    0.48169910745374
H           2.78330479975826   -0.57279285346834    1.62798353714255
H           1.94758935762891    0.52394581696780    0.63522071700329
H           1.08251848374442   -0.30093124853801    1.86546514576403
