    26
        -50.46862837  Gyration_radius:  2.47516688283 Dipole_moment: 4.003
 S           0.11401708477970   -2.14115963030579    0.66938294533221
O          -0.50338594552483   -2.75909246999307   -0.48583671434387
O           1.28448671897886   -1.33164530841854    0.29004743828519
O          -0.77717305591311   -1.39612802166924    1.51607831538631
O           0.69464094206718   -3.34183742935025    1.53172113218831
H           0.88196861174564   -3.98095828289806    0.85235832201643
O           1.01556193489176    2.27572228759931   -1.11037730021175
H           1.48135368457468    2.87985451377178   -1.68862617984824
O          -1.66565547759635   -0.73970620484991   -1.62655739747871
H          -1.28113447224539   -1.52641369278961   -1.16719584066138
H          -2.50481427656475   -1.02833976612115   -1.98969366240700
O          -1.68345164163893    1.72699290527760   -0.35741412087448
H          -1.75724570995379    0.85270012021020   -0.77693774858085
H          -0.85360823414842    2.10343686077670   -0.68037366369288
O          -1.15716571587421    1.15312393246441    2.19123576118614
H          -1.23818306291172    0.18186295785596    2.14874193009815
H          -1.55400165288409    1.46869708739835    1.34585647159405
O           0.98286560290790   -0.12943329706584   -2.09031087550808
H           0.04460217837214   -0.31863552883529   -2.24460564415877
H           1.03355470331086    1.37948133903473   -1.56101289233412
H           1.21309053937195   -0.66858727833571   -1.30767970857263
N           1.27330678197058    1.08289297591234    1.32127944048608
H           1.33005760746101    0.08132162063100    0.97838445007805
H           1.30386326949967    1.69821857376173    0.48613652629281
H           0.29329193361628    1.18932919064997    1.79131016086206
H           2.02915764165883    1.28830253521392    1.96408885490658
