    26
        -50.45718266  Gyration_radius:  2.69459418712 Dipole_moment: 3.799
 S           1.27645030441637   -1.96136804140176   -0.47945859457052
O           2.08670254578577   -1.94148873167035    0.73968882412074
O           0.10608895801214   -2.80314672107994   -0.33493478754498
O           0.95989022714598   -0.62096619993567   -0.93308156626569
O           2.17571322352928   -2.61641242279120   -1.60627755253576
H           2.21890697387528   -3.52331876317096   -1.32027543749939
O           0.42785906984009    1.46406354401464    0.67137881606791
H           0.96420590192959    0.92151304220503    0.06178109731622
O           0.07527411663939    3.66467245589771   -0.94571199258539
H          -0.29256937116437    4.39130505320327   -0.44120517310370
H           0.34676286824922    2.98293483989048   -0.30182223388805
O          -1.60282934197384    2.08614404475987   -2.41728981282265
H          -1.09668246671036    1.76202136148858   -3.16430123473661
H          -1.02981289415386    2.74069615168479   -1.96973860150775
O          -1.59296178908915   -1.78267839276445    1.40310764928163
H          -1.98580981769390   -1.10436028362341    0.83156600100789
H          -1.07358723452047   -2.34223933069568    0.78083309542327
O          -1.58508901845587    0.19539124245305   -0.49284973385674
H          -0.48647373559544    1.19999123024057    0.40534804444770
H          -1.81941713355672    0.82385595876105   -1.20735678717552
H          -0.80398401454113   -0.28617167167479   -0.82598303236714
N           0.55027708665295   -0.63757692987600    2.34862321424183
H           0.75144925212205   -0.64023046083009    3.34231533883381
H           1.27421450566578   -1.20132919074718    1.79279505207146
H          -0.39607857721208   -1.09727067138218    2.11866287456842
H           0.55150037078341    0.32596887702948    1.94418655310922
