    26
        -50.47361575  Gyration_radius:  2.43363914196 Dipole_moment: 3.318
 S          -0.96987367617225    0.69796801050805    0.94130334829983
O          -1.28463205801510    0.65304347418833   -0.49615096386267
O          -1.07976319571783   -0.62653248955661    1.52299980270189
O           0.32610517866492    1.30729797693244    1.16994407623162
O          -2.02289235840512    1.62865761179136    1.62053596609029
H          -2.87421412359408    1.19495740888233    1.42408151535461
O           2.34315309828063    2.29966948495331   -0.23690580849462
H           1.59896247621985    2.15692748871947    0.38250643512950
O           1.72112394718414   -1.70184368178128   -1.06776093349206
H           0.84079757189691   -2.12619691809397   -0.97679636888121
H           1.97663000891650   -1.48556116770399   -0.14373829591161
O          -3.64227911915944   -0.16282031224967    0.52134025636920
H          -3.25242341355567   -0.88330832996142    1.02849827913530
H          -2.99218286158758    0.05798697503768   -0.16388246231028
O          -0.85484364023927   -2.24982266947189   -0.56929342360613
H          -1.42455071960953   -1.79251088999643   -1.19130111949863
H          -0.92665225126518   -1.74834648660214    0.27003092552236
O           1.85028563606709   -0.86907802842844    1.47866554795792
H           1.28530490275572   -1.46811468831102    1.97322638525648
H           3.11201491367025    1.91795607534417    0.19337438578471
H           1.34870731828829   -0.03217222457834    1.44718677139208
N           0.98710189382917    0.65698591861361   -1.85679195035369
H           0.92204262117301    0.83082709999756   -2.85360721661105
H           1.36070520489062   -0.33834606864997   -1.63741173946577
H           1.61035961384089    1.35705769262382   -1.38292126184542
H           0.04101302164406    0.72531873779058   -1.39713217087914
