    26
        -50.46309153  Gyration_radius:  2.44660800136 Dipole_moment: 4.778
 S          -0.40333133153025   -0.71884735417101    1.80311031657209
O           0.28330137709336    0.55190722769008    1.72229917311756
O          -1.75972457738741   -0.67730126555911    2.26833795769440
O          -0.23818712301187   -1.48601515193299    0.55891241204201
O           0.42457966974479   -1.55469398307362    2.89699766294340
H          -0.22698881896392   -2.13069552799894    3.28575428023552
O          -0.09067797903351    2.10803839591283   -0.57507539098832
H           0.21479299207383    2.45942980612082    0.26580436798859
O           2.83605595894053   -0.05729541509257    1.53136642999175
H           2.96974207917771   -0.83804956572796    2.07142486599301
H           1.93999015901365    0.26849377926464    1.77000406160292
O          -0.11432689602550    0.63285390545778   -3.01843451108093
H          -0.22470082303599    1.35913246256030   -2.38878346788065
H          -0.63122547599334    0.86281959489981   -3.79234923869325
O          -1.81812267531031   -1.20108868078306   -1.66134782124268
H          -1.17697850514134   -0.73393591807155   -2.21818770647024
H          -1.31970019730961   -1.55325398684459   -0.90712929198117
O          -2.27494041320414    0.82799915447742    0.06478102439200
H          -0.96233902957017    1.67716647885799   -0.33700163598907
H          -2.36867850989880    0.11170760034769   -0.59747096167399
H          -2.22438987167152    0.38468281900149    0.92656346714267
N           1.46420163684379   -0.06380065540952   -0.76609957093809
H           1.67408829372334   -0.29497035434424   -1.73291093212228
H           0.94886641236472    0.86019012528891   -0.71439505499684
H           0.78893397502449   -0.75708006188998   -0.31882638759529
H           2.28975969308828   -0.03739343898595   -0.13734406805260
