    26
        -50.45538155  Gyration_radius:  2.56579270492 Dipole_moment: 4.105
 S          -0.76109481898536    0.63914176144741   -0.34405969840381
O           0.57885760040640    0.03332369703374   -0.54348745994723
O          -0.88156233301334    1.77947251299648   -1.37845704644053
O          -1.80277185476271   -0.33387233808803   -0.56436260805959
O          -0.80731286238966    1.26658695069764    0.97448727299444
O           1.25802870582635    2.17300158945484    2.23986526534908
H           1.53440233318743    2.99602246803361    1.83271099497525
H           0.38550027259564    1.93940696945319    1.82793269039451
O          -1.49469332030840   -1.06246548137648    2.03146519770105
H          -1.81372624178302   -1.33260357919674    1.15985951321684
H          -1.37373115465364   -0.10270168467533    1.91754764436463
O           0.91813312688061   -1.71476032731390    2.79176710763832
H           0.92670001414003   -1.53584307888950    3.73426934168095
H          -0.02477491540112   -1.58403261074334    2.49441497450907
O          -1.91920839446055    0.30632436802984   -3.17272665735642
H          -1.29939073981380    1.34522825495076   -2.19130686474163
H          -1.10784845261676   -0.19859832002641   -3.42838693271138
H          -2.28267739644185   -0.18053644775029   -2.41750125557359
O           2.14935780972357   -0.03443227578875    1.34558002527202
H           1.51259864916916   -0.02894920079398    0.47490683665321
H           1.94171427585733    0.86704329293121    1.78393602503793
H           1.73394092142269   -0.76232570941993    1.95239375118952
N           0.42193351054510   -1.01674479931204   -3.23151271555851
H           0.57882507510438   -0.71658001913889   -2.26979021856701
H           1.21503325297264   -0.71208265707483   -3.78177240704803
H           0.41376692682962   -2.02902332542337   -3.23777278655170
