    26
        -50.45920697  Gyration_radius:  2.51531190023 Dipole_moment: 7.273
 S          -0.93756988545960    0.78908751210397   -1.69016914628763
O          -1.64366533573129   -0.34020361099716   -1.07692878477772
O          -1.47226824526719    2.07599960768067   -1.36092384086776
O           0.50226059447853    0.64539309668171   -1.50929454388463
O          -1.16618345991388    0.59743643374937   -3.26256392248203
H          -1.74614987443211    1.31561840207810   -3.49582432196434
O           1.24811275987888   -0.49286899297077    2.07579860516462
H           1.38646702375693   -0.32558042814563    3.00929033010850
O           1.74120748241384    1.87884924168300    0.59956361503532
H           1.81368343164233    1.07621093661728    1.13641131468338
H           1.42023807117256    1.57375210674882   -0.26320142241015
O          -0.79386932824110    2.65745084189134    1.23272813477741
H           0.17696507506715    2.60764473780791    1.12156902566188
H          -1.14649977468770    2.67824543664948    0.32919014740578
O           1.02773857789363   -2.89938226492380    1.02944795365372
H           1.25777385107042   -2.03945025920174    1.46315592553618
H           0.26214671867496   -3.23301941667420    1.50238103331029
O          -1.22035366438790    0.08320276231604    1.58095331884887
H           0.28207221595133   -0.26774752181224    1.89574987796717
H          -1.18144778617491    1.07425429401933    1.61203488751016
H          -1.50526305348110   -0.12014748316086    0.67534502575000
N           0.35697989907449   -1.91089581246701   -1.33402610531391
H           0.67488688914991   -2.37479175542004   -0.43222923995171
H           0.80990349324648   -0.96815893765322   -1.45598398480353
H           0.49590953202054   -2.50805699425905   -2.14190582436555
H          -0.64307520770528   -1.57284191238892   -1.24056803831829
