    26
        -50.46843424  Gyration_radius:  2.53556959331 Dipole_moment: 4.830
 S           0.58641300625496   -0.59256602180642   -0.40322630926039
O           0.21348664838754   -1.96385547298169   -0.12432623332406
O           1.54343973263914   -0.08367182251825    0.57822000470617
O           1.21342357030329   -0.54113702533744   -1.79924319650367
O          -0.61559422751939    0.27115379667262   -0.42703762443550
O           2.17675868000018    2.45477678859154    0.30669240621038
H           1.91434764251311    1.52734911796454    0.50022704920269
H           3.09689152883178    2.52800516055145    0.56602630256214
O          -1.04150288325198    2.04414993210397   -2.37876760167623
H          -1.36723172919597    1.51507357925196   -3.10888540291397
H          -0.97143432300365    1.43945184253084   -1.61197766573848
O           0.57877132011509   -1.32386932978198    2.65857361131353
H           0.63082821618176   -2.23783286191837    2.36422131441222
H           1.07631397055663   -0.81900678399961    1.97156672003141
O          -2.20091420993399   -2.79602784490338    0.48461322349637
H          -1.26805015913833   -2.61895850017395    0.21286439850127
H          -2.21395360532460   -1.38292253002647    1.41174912941760
H          -2.68003013198227   -2.97589765702116   -0.32538273420211
O           1.64673965855168    1.90541115714529   -2.25777436329468
H           1.88518201501930    2.27017868400421   -1.37654732278994
H           1.44916457241194    0.43951077323334   -2.01541152362291
H           0.72430451215970    2.19306129714140   -2.41871339292491
N          -1.75179585715698   -0.50783816740922    1.74888711943076
H          -1.36334923521146   -0.04038903486693    0.86670002584289
H          -0.89015309065756   -0.80077094722160    2.30085195529057
H          -2.37205563175079    0.09662189044098    2.27610010069981
