    26
        -50.46361280  Gyration_radius:  2.49263389106 Dipole_moment: 6.640
 S           0.12990922550985   -2.34699914401166   -0.12832162419464
O          -0.61952103704518   -1.41353767410490    0.69585459443014
O          -0.28242683932081   -2.38035570460163   -1.51134006367567
O           1.57045890180737   -2.13292935616953    0.01883686733245
O          -0.16975985468454   -3.79185619551293    0.45420349664898
H           0.00362706864735   -4.33229641142282   -0.30904254429486
O           0.84116634642170    1.75748371611144   -1.23049916638336
H           1.20578567878852    2.24694377925906   -1.96873034943989
O          -2.52085657426721    0.28698347832404   -0.19860758291665
H          -2.18251149441473    1.07695754838596    0.24602562525188
H          -2.00457990976102   -0.45307889806414    0.16879098438091
O          -0.94210508588413    2.46152888265320    0.72665639226859
H          -1.28454038030451    3.34736300537680    0.60257004597595
H          -0.30306844294047    2.29540993587568    0.00580080504066
O           0.06175590515821    0.49210513521641    2.43333857390076
H          -0.31683896218919   -0.30043232316785    2.00081116614367
H          -0.43921021729856    1.24201716896473    2.07870609203203
O          -0.80490409226608    0.11056619954140   -2.24173585168090
H           0.20641894085596    1.06948115916520   -1.65139718766634
H          -0.56586219815599   -0.83125453720990   -2.11013546883533
H          -1.60125718799318    0.22758197916797   -1.67562900776483
N           2.03418116064737    0.29233326838876    0.72124814235498
H           1.72969196693649    0.89130007351725   -0.07219369288431
H           1.90634743551723   -0.73714994068081    0.42734327217578
H           2.99469551282549    0.47690167195085    0.98675283445511
H           1.35340414340998    0.44493319304730    1.53069365734479
