    26
        -50.46907306  Gyration_radius:  2.47621837991 Dipole_moment: 2.921
 S           1.23924654250158   -1.84904565481678   -0.16458484445622
O           1.99799544789746   -1.01273956735973   -1.08801217195904
O           1.72462208885852   -1.76755286552603    1.19232037308145
O          -0.19274816035893   -1.61870905263049   -0.28818344378554
O           1.46689761007271   -3.34843574161712   -0.63198391498625
H           2.36603869502672   -3.48882045756491   -0.35557576447530
O           0.38694360529026    2.41261989182586    0.44808273120579
H           0.78024539485577    3.21031835070927    0.80336285661008
O          -2.26728118588985    1.39921931425535    0.24913900104365
H          -1.46100599325485    1.92518312124320    0.34681210574640
H          -2.19036264668063    0.68454919883249    0.90239337276146
O          -1.68436746254004   -0.04804472668567   -1.91566167855225
H          -2.10662245114604    0.49820647296608   -1.21053737333979
H          -1.32607993388773   -0.82229504181551   -1.44616472247894
O          -1.56759466589922   -0.79200723652571    1.79210227797750
H          -1.05331953992350   -1.15962983548961    1.03395197515618
H          -2.03414974403292   -1.53027629559268    2.18514244319303
O           0.82482678493042    0.52262520686065    2.16176346558077
H           0.60005106865127    1.68524183171821    1.10721893864213
H          -0.06716266347442    0.19120315139189    2.34961372145673
H           1.30809952325910   -0.27189255969008    1.85134164206010
N           0.66308261985702    1.06084197630292   -1.88561906625644
H          -0.33179822029205    0.67084857377498   -2.04398874178325
H           1.03255701188717    1.51658852393115   -2.71187302734999
H           0.62864313886755    1.70840933938363   -1.07269556335078
H           1.26324311542319    0.22359409206669   -1.60836459173303
