    26
        -50.46214901  Gyration_radius:  2.4608356445 Dipole_moment: 6.827
 S           1.17856902543819   -1.58802639649603   -0.49890131788069
O           0.78956646046185   -1.19255123884628   -1.85484364378065
O           1.87942591025011   -0.48692974503328    0.15321361919611
O           0.09054257006316   -2.10335826868599    0.28531064110731
O           2.22502617489937   -2.75725593867341   -0.67415726403803
H           2.84872466461838   -2.36061249795816   -1.27178090452462
O          -1.97088407915543    1.25840004397040   -0.21480079146879
H          -2.78723805978621    1.74789352360958   -0.10994031099017
O          -1.19909008965085   -1.21568359590400    2.67938317263327
H          -0.74556220612396   -0.35748581291304    2.63942702782484
H          -0.63525845562806   -1.81570075616273    2.17399897846471
O           2.02238154619874    2.15618602360430   -0.16676144975461
H           1.55646318664958    2.35993812422418    0.65606219399465
H           2.29534388542717    1.22555921713505   -0.04862692941690
O           0.14915548013315    1.00349008040044    1.64014656151753
H          -0.60697134369151    1.14620746168550    1.05143697082453
H           0.73304539468928    0.35907406998077    1.19996680060440
O          -2.44359697148340   -1.20721684856657    0.28832064952656
H          -2.20719606284673    0.28280321134828   -0.06697915070780
H          -1.63613092492911   -1.67562932505553    0.00971231344007
H          -2.35763938798400   -1.21837432987111    1.26524525455628
N           0.15720700629064    1.30722414396542   -1.84761069477392
H           0.09242048418653    1.71840865376153   -2.77242466097436
H           0.41496976100593    0.26419020430734   -1.91425924129823
H           0.90872303492633    1.77749793592478   -1.26069400018186
H          -0.75199701392421    1.37195207029194   -1.34044383391150
