    26
        -50.46163605  Gyration_radius:  2.55696818267 Dipole_moment: 2.243
 S           0.33031201338123    1.29574214958756    1.90767304341698
O          -0.93540273735460    0.56558227175201    1.85441210449732
O           1.42026539054644    0.46496967827500    2.38421384300658
O           0.58166965765135    1.97183712790759    0.65645293063763
O           0.15022764812362    2.42740759711811    3.01135309977587
H           0.35650433741917    1.95911326115585    3.81404204299942
O           0.14414730196769    0.38126441036616   -2.43880326347346
H           0.21416303452265    0.89123294149953   -3.24619146910395
O          -0.09269643258489   -2.15934188121801   -1.22488210919959
H           0.02050252651408   -1.43752500962077   -1.85831042852476
H           0.54506625833133   -1.97845656467369   -0.51316758372587
O           1.80421608175450   -1.41718709766791    0.64829178427374
H           2.39414343514242   -2.05664386865247    1.05091503093725
H           1.62588066840326   -0.73357716289369    1.34418567772129
O          -2.60085708400690   -1.84547368209568   -0.46305776858602
H          -1.70924597855557   -2.13269255696626   -0.78731033729271
H          -2.61531025589543   -2.04887672952111    0.47458685522779
O           2.24939840813777    0.76149546442240   -0.99680080915743
H           2.34394993122918   -0.07842226043669   -0.51919255995817
H           1.00448321219469    0.53770128959927   -1.93751545718506
H           1.78600352554127    1.35196747191451   -0.36592307994033
N          -1.81480918168705    0.67741611257439   -0.57559588589169
H          -1.41506090051673    0.73047696038326    0.41606962715469
H          -1.03659348579366    0.68884418433711   -1.27353210051732
H          -2.29735814938506   -0.26460928816296   -0.62557785597560
H          -2.45359921505968    1.44775517103492   -0.73633536113254
