    26
        -50.46361291  Gyration_radius:  2.49265580379 Dipole_moment: 6.635
 S          -1.65395840959610   -1.63832928608468    0.34728655271548
O          -1.77869354909721   -1.92976293162654   -1.06109117974409
O          -0.57315896301467   -2.39666251884427    0.97954223461432
O          -1.54363490419654   -0.22257898134322    0.65652392630966
O          -3.00200096155796   -2.13468455774423    1.02043319734369
H          -3.19668520640167   -2.90045654391344    0.49081568470343
O           2.00898301738772    0.08596702343960   -1.12316481586289
H           2.70130173908504   -0.13147623800774   -1.74839617103548
O          -1.40865795972950    1.77290903153336   -1.16171004695895
H          -1.66820252492132    1.10148577150638   -0.50516076642395
H          -0.64972626447398    2.22875313867044   -0.77123237478136
O           1.13909048428576    2.48310612359213   -0.12189072784121
H           1.59042266735004    3.22718657233302   -0.52189097091173
H           1.51773805351574    1.67137144997679   -0.51350500011235
O           0.11918573992737    1.22813132018680    2.15530480760052
H          -0.66939737275536    0.80207258301928    1.76150635850659
H           0.39515545959734    1.90015437323612    1.51401556734106
O          -0.17624983048771   -0.27294540361419   -2.36385429417422
H          -0.73870984320507   -0.98293235853435   -1.98814229706874
H          -0.67680058295737    0.54963721037788   -2.16073125247880
H           1.13018580014632   -0.09818683075068   -1.62063779820124
N           1.46029951497353   -0.87589478741758    1.35733724058732
H           0.64183753594685   -1.56543305704852    1.22608967163909
H           1.80278980451332   -0.60248354350509    0.41442752788157
H           1.03410974354345   -0.01059315927720    1.81725776136596
H           2.19477683212662   -1.28835439015405    1.92086714498822
