    26
        -50.46163598  Gyration_radius:  2.55691659013 Dipole_moment: 2.245
 S          -0.44368955400618    2.28234184275582    0.14523350555594
O           0.71693815436358    2.64242812096484   -0.64764339198236
O          -1.41310789626424    1.50126921607176   -0.62170312513390
O          -0.14617278612581    1.63399166921841    1.40099210037760
O          -1.15584002693656    3.66033432492315    0.49881963208029
H          -0.99430779267263    4.17627409376122   -0.28466047981896
O           0.52074029903874   -1.80295972156284    1.61011785901745
H           0.60507347814787   -2.21673461625539    2.46949181714068
O           1.96191732599788    0.46041142211963   -1.27354415342738
H           2.61430198195361    0.68806504848934   -1.93807645834071
H           1.46009111340208    1.29484496182043   -1.08564791510469
O           0.77275777390488   -2.03653576774292   -1.19486297951426
H           1.17547275052626   -1.16028915190638   -1.32158580753499
H           0.80276338475786   -2.19570023160374   -0.24156627345672
O          -1.82172961958944   -2.05672045238199   -1.68301810096757
H          -0.83895128164390   -2.17442186352999   -1.62968511344261
H          -1.96738366342754   -1.37606300838354   -2.34350770342644
O           2.09487698003838    0.23710710886398    1.48052970704202
H           1.36543009150281    0.88422134377616    1.58322800712073
H           1.18153495694181   -1.04188470474392    1.60375844034682
H           2.32505080203833    0.27802900553425    0.53826715486995
N          -1.77651329125982   -0.74309202622243    0.61206752007583
H          -0.90877279292185   -1.06972241018536    1.09503157776340
H          -1.61771593154868    0.23107778937274    0.19777390321998
H          -1.95205844720566   -1.37022149998855   -0.22379672138908
H          -2.56070598904498   -0.72605051318457    1.25398699893297
