    26
        -50.46162483  Gyration_radius:  2.55244246807 Dipole_moment: 4.676
 S          -1.71237032893877    0.93558369146427   -1.13635405008455
O          -2.12272452163002    1.22091139217269    0.22756185795124
O          -0.37718083842918    1.46676724802080   -1.42354876105716
O          -1.80876247612682   -0.45531490841642   -1.51191817681324
O          -2.72004233367079    1.72858451211906   -2.07219852439473
H          -2.79712199604548    2.59050316514725   -1.67227184686076
O           0.06218953183818   -1.95145236437197    0.99114288749041
H           0.12036594666925   -2.89053653216025    1.17327614934620
O           0.21921457592100    2.11351470405166    1.18705447461513
H          -0.70087574268604    1.82052799722120    1.05762043570827
H           0.52075673897260    2.30750816362349    0.29272647283904
O           3.36523366987341   -0.14042096216775   -0.15922138605231
H           2.87846456336306    0.03441475798355    0.69540147080572
H           4.09946424222850   -0.71326713689350    0.06422471504999
O           1.80647452393925    0.07365713657062    1.92582537672481
H           1.27405754528168    0.88904440758634    1.79839883493636
H           1.18291574124719   -0.65720146916350    1.81154770159074
O          -2.45913228024343   -1.36411000542398    0.86148491413341
H          -2.55271860447693   -0.44059968281143    1.13745912765828
H          -2.42154192392613   -1.27962347992459   -0.11197222360809
H          -0.91504286202102   -1.72637182665093    1.03326163439617
N           1.02169370345183   -0.72627620751411   -1.24844143322255
H           0.49165752064787    0.19228310835353   -1.36178866929600
H           0.58500599200947   -1.25273861518789   -0.45767118392659
H           0.93564829230941   -1.25400162909484   -2.11074746402303
H           2.02437134036592   -0.52138544456850   -0.99085235384772
