    26
        -50.46361290  Gyration_radius:  2.4925689382 Dipole_moment: 6.644
 S          -1.20963446649406   -1.99309432483612    0.32275358102800
O          -1.09671178606131   -2.38382930177415   -1.06232026517438
O          -0.04974930854865   -2.40617232690322    1.11456433735194
O          -1.49889972231027   -0.58311043337648    0.52347443899824
O          -2.45373647366656   -2.78724410489077    0.90407767030366
H          -2.38414869364206   -3.60651149613389    0.42577309604201
O           2.03264251471745    0.54975098214444   -0.93269136347117
H           2.82287039776656    0.49021073547103   -1.47073881499409
O          -1.67486619580131    1.27507929009332   -1.43177357500036
H          -1.82639093595724    0.59624642011121   -0.74952588847199
H          -1.10664643581672    1.93509232554306   -1.01018135405266
O           0.47294683096334    2.68428644196083   -0.21562915048463
H           1.08757717092227    1.98040014640422   -0.50288611455571
H           0.76417162342356    3.49916586788750   -0.62612563006401
O          -0.43990014689516    1.33107344215348    2.04952077291887
H          -0.27436567160905    2.01588407777125    1.38406882565069
H          -1.04460904085891    0.69250616331390    1.61934022692005
O           0.16573510043696   -0.43873476734325   -2.33993283266330
H          -0.23555900324052   -1.24964042550158   -1.96171707510525
H          -0.54762493578963    0.23359594785204   -2.25345615168223
H           1.29179189511285    0.11387407714012   -1.49389825453842
N           1.47401344056346   -0.38752455988213    1.55521568726242
H           0.87837391312546   -1.27352734531719    1.40457764109562
H           1.83874257944765   -0.08559388696455    0.62957951399005
H           0.79232567400938    0.35942734804617    1.90097865197649
H           2.22165165620374   -0.56161030296896    2.21695204671975
