    26
        -50.46804953  Gyration_radius:  2.48237735898 Dipole_moment: 3.273
 S           0.66110451138794   -1.32009996108950    1.72056102450283
O          -0.68762794772195   -1.05152915531267    1.21375549131394
O           1.43338964398972   -2.06962946941613    0.73230055879334
O           1.31216835047574   -0.13825168458105    2.20957436059993
O           0.48439653302771   -2.30964882496363    2.94529796045103
H           0.37881670147842   -3.13972782167312    2.49343673804485
O           1.12603589307802    1.51628576742824   -1.62425435816181
H           1.75613015771223    2.10197074519529   -2.04499452358458
O          -1.66818470251675   -1.29820300524335   -1.29044074292840
H          -1.88879202747424   -0.35340255879873   -1.47141350608880
H          -1.52462711144284   -1.33767732080133   -0.32617011002384
O          -1.71561273075904    1.35798773234315   -1.49083676908227
H          -0.78919046854668    1.54595130671736   -1.69764452101933
H          -1.81051053176544    1.53710722367225   -0.54097533622564
O          -1.57906859730604    1.41584948117376    1.27335904623179
H          -1.24008332834439    0.48778810856992    1.30243281023160
H          -2.19256168830864    1.50076567948884    2.00384812785986
O           1.03911849085628    2.13084810326104    0.87564005927255
H           0.08877343790974    2.20730730718332    1.05954541931338
H           1.31166679060429    1.35556176788557    1.40932692692630
H           1.12934640882086    1.76591522511737   -0.64639147807920
N           0.89732316460735   -1.18433196386264   -1.64713605191394
H           1.10308056950602   -0.16499029441027   -1.70532350500341
H          -0.17764654292914   -1.30588278327021   -1.65361229562189
H           1.34276272699690   -1.69452305234955   -2.40128175598141
H           1.20979228666385   -1.55544053226393   -0.69860355982678
