    26
        -50.46862857  Gyration_radius:  2.47498356074 Dipole_moment: 4.023
 S          -1.36761254162873   -1.77948962972468    0.09227165068642
O          -2.58626221823828   -1.13861423067315   -0.35665726063721
O          -0.28069540720331   -1.62328219030277   -0.88932619853941
O          -0.93052873762471   -1.41093571132200    1.41099955986863
O          -1.69074243223058   -3.33432305676479    0.11744120436019
H          -2.33492274409907   -3.39852304823177   -0.57975669392410
O           1.88354663952501    1.58230253512754   -1.18176888204966
H           2.38108302267917    2.07766363125587   -1.83252744803488
O          -2.01873477532945    1.37359297501541   -0.04384552645184
H          -2.80007683214650    1.83201646009454    0.27024008405467
H          -2.26882654024737    0.41912522259599   -0.10783032439668
O           0.36178226603644    2.10368274475282    1.17819494378000
H          -0.51083054879298    1.86487392062625    0.82108612699266
H           0.95828536130845    2.12880138560174    0.41793632042389
O           1.11346139879310   -0.08845276328905    2.49393376168565
H           0.29908115530795   -0.61537519931618    2.38960491507319
H           0.84905870351642    0.82438319309628    2.23216201134425
O          -0.36909140123498    0.73794194575856   -2.16143290882661
H           1.02819442684652    1.30600819074616   -1.62732860818342
H          -0.38615341460942   -0.19045102281559   -1.85471628330460
H          -1.04984652231389    1.17888009914323   -1.63057459478246
N           1.97427708856285   -0.78240843271550    0.16010509224076
H           2.16301588043921    0.09772355619272   -0.35668318325844
H           2.75391886823443   -1.42655733377056    0.09752222617665
H           1.73209208049061   -0.52900739220944    1.19433236322696
H           1.09652722399999   -1.20957583887229   -0.25338234745093
