    26
        -50.47250278  Gyration_radius:  2.48735088849 Dipole_moment: 2.895
 S          -0.61499772981481   -2.11684252142253    0.53338070215694
O          -1.85715108057851   -1.63342374361858    1.10502011822918
O          -0.70714603905416   -2.28518518979813   -0.91186938534736
O           0.54176626840205   -1.32999773598349    0.91585028541288
O          -0.38303228318165   -3.56263922682989    1.13792544912567
H          -1.22271993400186   -3.97234422648079    0.96041008092607
O           2.53896204699359   -0.12464484295517   -0.44315604563907
H           2.03183187461532   -0.67719355092380    0.17992586674596
O           1.48801295634878    2.28889947250053    0.37220387745407
H           1.91307611685003    3.05330140112115    0.76139344487055
H           0.98289238251963    1.83913503917846    1.11052083034324
O          -2.25940144995369    0.87245785173784    0.61448416562781
H          -2.13391848011886   -0.09938136255849    0.77622533550543
H          -3.20316490311431    1.02913039928178    0.67022997694491
O          -0.61956877324327    1.84204364318281   -1.34449204908361
H           0.12344872104611    2.18248388279654   -0.81432423144447
H          -1.28457450842960    1.54569306329555   -0.69449475338257
O           0.06920393904715    0.99950875667322    2.13543499887929
H           0.27380798203965    0.08419736403829    1.85701494502793
H           2.37146768444609    0.79169826435622   -0.15598790796582
H          -0.84298885264421    1.14201592323889    1.84298905147404
N           0.56082505411194   -0.37651660502272   -2.15493448212030
H           0.02170448643649    0.51901128757876   -1.96501134809954
H           0.70594858652552   -0.52596179443079   -3.14664208390506
H           1.47846454708187   -0.30042973862992   -1.62041822418446
H           0.02725138767410   -1.18501583033284   -1.72167861754570
