    26
        -50.47113783  Gyration_radius:  2.45497242393 Dipole_moment: 1.292
 S          -0.80696607371062   -1.45824979185214    1.24561889117967
O           0.26402842643189   -2.35145446787225    0.85344569721324
O          -0.28923255103746   -0.17868442244473    1.72325268795316
O          -1.82882285133080   -1.27604444646463    0.23241251651089
O          -1.53393411479857   -2.14376004170565    2.47389059639581
H          -0.81637744661577   -2.50778875223507    2.98302918249447
O           0.80108859004546    0.19769900543279   -1.99361388707418
H           0.52443842873084   -0.73123100955151   -2.15526525174837
O          -0.59564964452985    2.45062015009434    1.10348386896367
H          -0.50731192183166    1.62683876537757    1.61320356956990
H           0.31496891891467    2.68574490166144    0.83124061620759
O          -0.15059889314913   -2.29306056779507   -1.78018034681794
H          -1.11071170503164   -2.28204267765459   -1.74785933364126
H           0.11402469737913   -2.44610047708524   -0.85155493689049
O           1.90041383853572    2.56907016286628    0.02811347367739
H           2.18831368586893    1.68853964374936    0.30911782829758
H           1.90932926478561    2.55642814737689   -0.93166529323608
O           1.97886343144604   -0.17394009815791    0.42235229089713
H           1.16557929217563   -0.15191050318017    0.97800613151146
H           2.24585360743041   -1.09708945005847    0.43281740350760
H           1.35786314263597    0.13262428209731   -1.19035861204628
N          -1.44818419350991    1.05402067552205   -0.93613499891474
H          -2.18024220187056    1.40934967734017   -1.54044418950674
H          -1.74014153034875    0.15647199921540   -0.46820712662659
H          -0.55895917478823    0.81923125281580   -1.47811122313580
H          -1.19763300181139    1.74471803254580   -0.15658954474294
