    26
        -50.45207189  Gyration_radius:  2.56087764937 Dipole_moment: 5.259
 S          -1.02841999353438    1.30998854245820   -1.65475916604533
O           0.08453456090303    1.02056212806480   -2.56530015907759
O          -2.00188697009602    0.24939906953921   -1.60538002599483
O          -0.53737694705172    1.73447172769218   -0.35357856239696
O          -1.77122787026553    2.57772528782330   -2.26294795539394
H          -2.28643064194626    2.21681710999519   -2.97862820442138
O           1.77835724160049   -1.60529150091877   -0.05491067597720
H           2.21767042378178   -2.35611668020191   -0.45572576348932
O          -1.99239184295790   -1.66583034810289    1.68850192972410
H          -2.90982018713987   -1.52159861232027    1.45163799450813
H          -1.63899666673836   -0.77537409868006    1.93583058360316
O           1.67924632898151   -0.18636429324308    2.31588837632127
H           1.63389517192394   -0.71699474646878    3.11302504370225
H           1.71364502122331   -0.81079460412568    1.57273328517076
O          -0.94334965402442    0.73425825637400    2.12459085396486
H          -0.00351654792547    0.55104800742021    2.29260026918853
H          -0.96390781792738    1.17608349909067    1.25835400153590
O          -0.68672530253468   -1.86648094027291   -0.62939514138407
H          -1.15780202369124   -1.93992279497400    0.23441386497219
H          -1.14666870980358   -1.13990545777384   -1.09333674657517
H           0.79055930613801   -1.71331047515020   -0.28554812386797
N           1.88925074695140    0.95117216196253   -0.80120193612583
H           1.32180203929630    0.95927184803099   -1.72326714265730
H           2.01761426451658   -0.04752959172635   -0.50326261317061
H           2.76125536914508    1.46685545543156   -0.83507247655280
H           1.18069069118597    1.39786107006109   -0.18526150956173
