    26
        -50.46245844  Gyration_radius:  2.53033438228 Dipole_moment: 4.457
 S          -2.18758652812851    0.07593104665425   -0.50459845309188
O          -1.07474101326847    0.47501445263023   -1.37884400826041
O          -2.92920284358133   -1.03478228453426   -1.05919073867563
O          -1.72870922291783   -0.14034971883035    0.84796885404556
O          -3.17194248788213    1.31724192611332   -0.46196505579954
H          -3.61922125971097    1.29156396420872   -1.30299195223437
O           1.88937631043814   -0.30890326784807    1.60187346992419
H           1.92486167897263   -0.77367510873914    2.43816824883408
O           0.73441020890695    2.36864696191855   -0.72023467855309
H           0.00792990335319    1.83922811171966   -1.09164398349045
H           1.53951457590415    1.85798119047483   -0.90256936011378
O          -1.42368886060050   -2.83511680607344    0.10868940336416
H          -1.60263386766490   -2.55780175308090    1.01237944956345
H          -2.07942382250138   -2.32687744849246   -0.42335242407843
O           2.98450324323562    0.65801164863521   -0.75011008714316
H           2.81354900041947    0.37086981945054    0.16056088505069
H           3.76409259985313    1.21443140318028   -0.72058557938611
O           0.14178157216116    1.53653471935080    1.75668964130505
H           1.23058796455279    0.46124292642121    1.73841014167781
H           0.33909827913087    2.05567953097629    0.94435227023084
H          -0.65157761855375    1.00818408245307    1.53538264323805
N           0.64311126666979   -1.32436509716783   -0.57240696022952
H           0.05773098705505   -0.53194844828321   -0.96595563207182
H           1.32085734583068   -1.63385020494247   -1.26249507381791
H           1.13764132079471   -0.98802257909022    0.29052034827312
H          -0.06031873248366   -2.07486905711283   -0.31805136857008
