    26
        -50.46262737  Gyration_radius:  2.62383248039 Dipole_moment: 2.001
 S           1.92671936764545   -1.38815420159195   -0.89577910192878
O           1.18071983845008   -2.60658092320697   -0.64347519145822
O           1.71977594125118   -0.83624000939902   -2.21213299164841
O           1.70896472634947   -0.38275214728907    0.15088603595388
O           3.46978110944285   -1.76367006889598   -0.78130947253652
H           3.61713296163275   -2.28909845354066   -1.56163039540707
O          -1.65539755248987    1.51452338143454    1.61750861801129
H          -2.17000754818027    1.68849150165678    2.40605346612673
O          -2.14189529280601    0.11142573517603   -0.72831394296765
H          -1.90152224982153   -0.79265650655447   -0.44355741661700
H          -2.24875705573992    0.62625444391881    0.08882971318594
O          -0.10040329679926    3.32699781887043    0.31107046284025
H          -0.74261054641893    2.78399047250429    0.81297680572443
H           0.65632419039165    3.44812809361662    0.88744877031412
O          -1.22355935342010   -2.26203845354710    0.22907813105033
H          -0.30045615961589   -2.40184085687644   -0.11827616935627
H          -1.67339756718851   -3.09921188288113    0.10550032317259
O          -0.12925118201905   -0.53955130556160    2.09064111490434
H          -0.62205128869098   -1.27502791491508    1.69441111492786
H           0.66993187612767   -0.46764489023114    1.53247855449056
H          -1.03494067647155    0.76148664259838    1.84858472266244
N           0.19959325138863    1.19284176937503   -1.29946870733699
H          -0.76892168528013    0.75778007771944   -1.22359223864978
H           0.15579129864595    2.16909755956250   -0.93960832586588
H           0.84470661774623    0.62470980299186   -0.68330184849167
H           0.56373027588291    1.09874032506289   -2.24502203110202
