    26
        -50.46911891  Gyration_radius:  2.45460247904 Dipole_moment: 4.000
 S          -2.22455979466754   -0.06777538966389    0.24518718661719
O          -2.50144343837730    0.37188804842280    1.58184404376823
O          -1.55054311103809    0.92373394693796   -0.58203125505228
O          -1.50639752726242   -1.34606316844361    0.18184626320218
O          -3.63542951225879   -0.33413081354454   -0.44145618226215
H          -4.23285537899274   -0.29218703036191    0.29868592125343
O           2.40028937571809   -1.15105316839944    0.43513533852345
H           3.09411507063224   -1.64672286810729    0.87040814366738
O          -0.10999614422785    1.85208030273923    1.41970972256474
H          -0.66732257156116    1.60386971593280    0.65073755157974
H          -0.73615782073793    2.12360606557022    2.09514600771626
O           2.10492830228914    1.56676555718748   -0.32753738238824
H           2.39155810780051    0.68427666154937   -0.05037238932836
H           1.48519119787515    1.87048544095733    0.34905805369052
O           0.45878579031732    1.00268051571848   -2.35697841394312
H          -0.38438747254969    1.18542442480667   -1.90426131951391
H           1.14787468703402    1.37342795154722   -1.75644132196230
O           0.38862308814465   -0.75810007974695    2.01465490274085
H          -0.38697749379029   -1.10161208283699    1.53864199111094
H           1.67005270754078   -1.02758830855432    1.11422805253264
H           0.27217329732904    0.21187763397937    2.00763002705990
N           0.51222786806079   -1.43665670588229   -1.49349354721487
H          -0.34838044711859   -1.45523954254230   -0.87264223118541
H           0.49232575535280   -2.19906441034284   -2.16081664228826
H           0.52091578242411   -0.46393861686281   -1.98132585942999
H           1.34538965205822   -1.48998410004626   -0.87555665144981
