    26
        -50.46361290  Gyration_radius:  2.49255572763 Dipole_moment: 6.639
 S           0.27874500989245   -2.33348384161809   -0.12912776054122
O           0.69140585655869   -2.29323064962796   -1.51184662902975
O           1.39412143343340   -2.11036603008323    0.79223261627709
O          -0.83731135100804   -1.45772342175012    0.18644736923729
O          -0.23063787627330   -3.81249193329951    0.13482671627797
H           0.35808228129308   -4.30807034812803   -0.42423061806925
O           1.30048291000096    1.83474462962660   -0.49822934942916
H           1.98809111231455    2.37012407722546   -0.89582205919820
O          -2.01307923228144    0.26310151762092   -1.53498773432839
H          -2.00626124287526    1.03124793473099   -0.94661463411235
H          -1.74992218530904   -0.48923565803862   -0.97467064599907
O          -1.28993961343851    2.40341642432690    0.18907281577980
H          -1.54642352999431    3.28954604155239   -0.06862075799011
H          -0.35458411133883    2.28671022731390   -0.06992377862366
O          -1.29765900903584    0.35525242797911    2.08784996966692
H          -1.34482465903422   -0.41663630316222    1.48746611863341
H          -1.55505545634723    1.11710514967937    1.54711875473782
O           0.54528611086130    0.22670803317187   -2.31145520632879
H           0.71389752781571   -0.71749967456089   -2.10759957049233
H          -0.43512438896052    0.30029224486314   -2.26922853947595
H           1.02820465809634    1.16350226540431   -1.22544328687310
N           1.29590732633611    0.27823902626701    1.72807568690033
H           0.27795446440728    0.37588695831937    2.03823618765099
H           1.39302956920352   -0.73488108913738    1.37221785389633
H           1.44853215147307    0.91636438633275    0.92147482528249
H           1.94708225420987    0.46137764499237    2.48278167615077
