    26
        -50.46361288  Gyration_radius:  2.49256178122 Dipole_moment: 6.644
 S           0.85344419881293   -2.17513860721245    0.28183512965444
O           1.30199743858273   -2.26689965365618   -1.08719946547954
O           1.83808634304204   -1.52525969558029    1.14844402965083
O          -0.45774306246797   -1.56888413685539    0.44096534599973
O           0.71686076841591   -3.66784150508098    0.80114711985295
H           1.43672464154323   -4.08534150060837    0.34048924792592
O           0.82530947658529    1.99026616854535   -0.81477296405915
H           1.37627114821089    2.60517334577094   -1.30038314262657
O          -1.94864159564387   -0.51737527829629   -1.55367797022344
H          -2.15743915035434    0.31629287875977   -1.10908372962331
H          -1.53135053844500   -1.07284634192441   -0.87063071525281
O          -1.85233466202639    1.99748319358020   -0.23341957404294
H          -2.30959769346847    2.73330034352301   -0.64198365996794
H          -0.90721211274682    2.07774219666684   -0.46963548161721
O          -1.43276941430675    0.36714479165187    1.99507316689856
H          -1.84779493111856    0.93613757470380    1.32943055748742
H          -1.26147030760861   -0.48238647537405    1.53956105626487
O           0.56882659420968   -0.03972227543253   -2.31711767715350
H           0.95783911783625   -0.86200881745373   -1.95095984621555
H          -0.40005303047735   -0.20934851328160   -2.28611538623846
H           0.75847898583399    1.15879860387824   -1.41297312408843
N           1.11166942848880    0.88535730629063    1.65005573466704
H           1.47187782872244   -0.11619083285090    1.47755435730452
H           1.13554548481884    1.39417833518529    0.74356160792612
H           0.08908806272058    0.77513696464543    1.94007958921290
H           1.66438697084134    1.35223193040553    2.35975576374336
