    26
        -50.47126095  Gyration_radius:  2.42916197573 Dipole_moment: 4.301
 S          -1.69231410315747   -0.54595849929423   -0.69927189582998
O          -2.14154810955536    0.53461858293897   -1.56478016036564
O          -0.48690343910725   -1.17724985971800   -1.22650537157471
O          -1.54208932993795   -0.14532945018648    0.68144304445711
O          -2.82863095845921   -1.64175283161063   -0.73458183027423
H          -3.03076257110101   -1.68919300682280   -1.66293997296400
O           1.95719400306623    0.57330716454903    1.44007197093853
H           2.72292563459913    0.57821489541852    2.01496140294694
O           1.60698140882074    0.48065210655544   -1.27411333823477
H           0.93161212237253   -0.22549789918834   -1.34077618258557
H           1.89019177939811    0.48352346374326   -0.34015744047869
O          -0.29964661576968    2.13899108870375    1.44186964814383
H          -0.91316140365001    1.38298400938502    1.39758035824452
H           0.57400474716189    1.73129317338228    1.59260881315669
O           0.75483870989619   -3.17393562288698    0.01613262232823
H           1.57962460404372   -3.29301696842026   -0.45778120025736
H           0.23661891100754   -2.52168431678038   -0.49828095330547
O           0.40526510217170   -1.40580414431001    2.05384454591827
H           1.40421636568998   -0.21985298303957    1.71606256999256
H          -0.41655794755262   -1.03001952284784    1.68705209645140
H           0.59478992725616   -2.18346515066248    1.49607952696075
N          -0.26169224992033    2.30709261139245   -1.16864249653681
H           0.60074284505328    1.70633116200488   -1.35383353974257
H          -0.29765530915450    2.45171598753577   -0.11124673303995
H          -0.25413531797052    3.17902420716577   -1.68540706029077
H          -1.09390880520189    1.70501181299348   -1.41938842405865
