    26
        -50.47250311  Gyration_radius:  2.48721909276 Dipole_moment: 2.886
 S           1.96215293392012   -0.13394523916137   -1.12983826055806
O           2.54371570103839   -0.15147933492816    0.20685821612548
O           1.62832881935107   -1.46638463636648   -1.59545666497528
O           0.86224136911983    0.80606235151399   -1.23083011535607
O           3.09098754894671    0.40328218569205   -2.10284856004766
H           3.70147446172588   -0.32588185983337   -2.09504450161299
O          -2.57283083613818    0.92216978432023    0.34338107253097
H          -3.49156598622329    1.15115930985253    0.20201479773579
O          -1.20264389400830   -0.98387867270546    1.78285624722002
H          -0.95883321759781   -1.58126054137773    1.05068507891289
H          -1.83511238425949   -0.35070585297264    1.39767674661972
O          -0.32600162179368    2.51212890938149    0.49031074130773
H          -1.22447163248162    2.13510810182859    0.46463590713328
H           0.12769774407243    2.12633883105536   -0.28188354139106
O          -0.47809237987325   -2.41152693209904   -0.43247250253742
H          -0.42953434006493   -3.36738987152745   -0.48070231940914
H           0.35412278959297   -2.07422165887534   -0.85666468740485
O          -1.54872303444757   -0.21410888751515   -1.76471723439841
H          -2.24811259810751    0.51290283995744   -0.51082512412695
H          -0.66259327023456    0.20010798283092   -1.74721469779046
H          -1.39392943909748   -1.12647461188489   -1.47897773571766
N           0.83179286997464    0.68705720560593    1.98506833561262
H           0.40552914044157    1.54980019234894    1.52933818730276
H           1.58276230237218    0.33775881320048    1.32168297730722
H           1.21880416492475    0.88783969027063    2.89979944483643
H           0.06283479884863   -0.04445807860694    2.03316821268135
