    26
        -50.47168519  Gyration_radius:  2.49121339722 Dipole_moment: 3.021
 S          -0.79652981114141   -2.13768368566983   -0.30833085682098
O          -0.21328688310226   -2.07457976014285   -1.64443013417857
O           0.14530170708629   -1.62863931054749    0.68545621118353
O          -2.09640897695215   -1.52382098425516   -0.21101078314504
O          -0.99313227953494   -3.67681516424050    0.00201356138439
H          -0.14982350975803   -4.02857801593592   -0.26155695675177
O           2.45473738592760   -0.27286251131499    0.42364616686838
H           1.74006147718983   -0.89328758351243    0.66664124212152
O          -2.41190313841181    1.03060567560848    0.04914116678531
H          -3.32559319875477    1.23886225355650   -0.15050185334110
H          -2.31853914026155    0.05339464117902   -0.08897112178469
O           1.21274466852799    1.97186160230809    1.41794646380683
H           0.48274948345039    1.39580916582313    1.79141913930987
H           1.45451043174954    2.58524286680937    2.11205824373152
O          -0.15245800464168    2.15846795364588   -0.96542185160334
H           0.36379366549087    2.28786031678317   -0.14909502054530
H          -1.02418374224366    1.83492514993243   -0.66749326545510
O          -0.72139456174867    0.40788676870932    2.18190666079983
H          -0.44834982900673   -0.42886490276670    1.75265840267278
H           2.21839540866093    0.56241869220747    0.86643164020295
H          -1.47857024514080    0.71768245523693    1.66383356747601
N           1.22043222233274    0.09067086711799   -1.86378665487503
H           0.62760402931971    0.94375275378628   -1.63828559151913
H           1.70574920850083    0.19856781759821   -2.74699740006992
H           1.89399392311359   -0.03561003725402   -1.04795748417113
H           0.61009971933685   -0.77726701471455   -1.86931347211926
