    26
        -50.46926199  Gyration_radius:  2.54916666824 Dipole_moment: 4.550
 S          -0.17720193631164    0.44989001967739    0.28522300060723
O           0.88698407541708   -0.54702993239297    0.52556665390958
O          -1.37606520331065    0.08905474661303    1.03141244800476
O           0.28722892607520    1.79229505627268    0.52823446671166
O          -0.57895278100411    0.30386278204282   -1.20893599623756
O           0.46427095993974    3.63887586279589   -1.37710540241282
H           0.39836162697051    3.05759197434875   -0.59061546640574
H          -0.39608022529190    4.04757632475120   -1.47943964173981
O          -2.35098841847210   -1.73389708802629   -0.61474490073907
H          -2.09570300112744   -1.37474723468712   -1.46955830338554
H          -2.22473404623468   -0.98409168216560    0.00707296852680
O           2.87090913275019    1.00593754439877   -0.35980106475517
H           2.66479863329754    1.82901914069078    0.09289897959983
H           2.26432962286131    0.34931484171849    0.02954346425997
O          -1.25975466966680   -1.65070926113074    3.03550820897939
H          -1.42919989650787   -0.92004165496428    2.40014841455446
H          -0.71154496353725   -2.64467238869294    1.77086192011458
H          -0.70477641679337   -1.27977798015971    3.72339070080623
O           1.31653051650933    1.34503390402835   -2.50162511248437
H           2.06734051211672    1.17988951111872   -1.88591117564493
H           0.18094140020021    0.69485470507997   -1.78489002252218
H           1.08916335602938    2.28690644780002   -2.36631969701928
N          -0.36813272990647   -2.76411537213150    0.79013867175257
H           0.27699549521759   -1.91388425466656    0.63416610893622
H          -1.19165650939458   -2.60537364883853    0.14768344687169
H           0.09693655017503   -3.65176234349537    0.63709734970293
