    26
        -50.46053033  Gyration_radius:  2.50790341915 Dipole_moment: 6.054
 S          -0.06547328852581   -0.55488800457668    2.04761072233369
O          -1.25356297890679    0.05976352442104    1.46640161321746
O           0.09008286890614   -1.93252789571009    1.58223689840396
O           1.13121121580564    0.22046531102856    1.85399336375671
O          -0.33195004708279   -0.64386053019700    3.60447815947665
H          -1.10324129805871   -1.20051036763751    3.63944603113841
O           1.20077754603139    0.90152373646320   -1.52073537896333
H           1.78782721179644    1.26857743984837   -2.18257265089478
O          -1.46098927010346    0.06208440216334   -1.20985060693196
H          -0.62886161105433    0.51700447923354   -1.40963717845547
H          -1.49040392318026   -0.00901362762428   -0.23474598357577
O          -1.48849443234502    2.63442743805261    0.77642372331400
H          -1.46080853020749    1.73998780418597    1.17102081560166
H          -2.02571231874627    2.54719744417028   -0.01426227392663
O          -0.81341635420457   -2.23854281856372   -2.32438727561234
H          -1.24436440241526   -1.44382103065330   -1.91615090487520
H          -0.89792620916049   -2.13174821325654   -3.27269647323676
O           1.19378072549742    2.48896557490171    0.47893383974276
H           0.26372144008176    2.77512077949560    0.58952131718262
H           1.30732462720080    1.77738943261650    1.13979610710829
H           1.22062568145347    1.55974766484471   -0.74417032275664
N           1.23885219590759   -1.68468732491050   -0.71183158794727
H           0.80191134918119   -1.80508567692597    0.26609938774103
H           2.12722148460937   -2.17219896227377   -0.75399107640381
H           0.54607219003483   -2.06972071292103   -1.40238854993284
H           1.35579611748813   -0.66564988617233   -0.91854170550514
