    26
        -50.46690437  Gyration_radius:  2.50969873212 Dipole_moment: 2.775
 S          -0.61826670777807   -0.50112551719949    1.68993117143187
O           0.03218441386758    0.78974698134294    1.74677069154937
O          -2.04880353757009   -0.47829027268405    1.86342472616449
O          -0.21372834510068   -1.24548664190707    0.49544392281479
O          -0.05458447667404   -1.33477385409053    2.93057451656984
H          -0.81183733607630   -1.85620233541269    3.17519498083999
O           0.54408245049060    2.05300017756711   -0.57949042891189
H           0.32266444590669    1.90851556547842    0.35757479053411
O           0.92522467349133   -0.47685015957147   -3.26280806841223
H           0.06503627784527   -0.33408270826143   -2.82955657391203
H           0.99221472969541    0.19054094286312   -3.94740562108304
O          -3.33561056364153    0.77695572106656   -0.10799261287411
H          -2.89890699224731    0.38320664943536    0.67628837483806
H          -4.23577252117933    0.44770764894462   -0.10110033021475
O           2.44850479257686   -0.37950990534122    1.88075903870628
H           1.63304800113446    0.15058777559938    1.91486935839755
H           2.38272448251107   -0.98203821113484    2.62289987413692
O          -1.17509806568460    0.17414209047822   -1.58295630526998
H          -2.06131812755652    0.47061697878409   -1.30213909831329
H          -0.19409660361293    1.64633862396045   -1.07323750742936
H          -0.90844946413578   -0.45559625891860   -0.88674590581380
N           1.88207349875751   -0.20117147898894   -0.75093576910678
H           1.14384843726988   -0.74775056970854   -0.23522558555896
H           2.76194871322161   -0.32592624944513   -0.25415302843998
H           1.87680323971718   -0.48283230339467   -1.74636532333161
H           1.54611458473934    0.81027733059130   -0.69361932731829
