    26
        -50.47126127  Gyration_radius:  2.42917988659 Dipole_moment: 4.306
 S           0.48835919141395   -1.81214250183737    0.35745730830063
O           1.50053070182356   -1.76051057200788    1.40224022819013
O          -0.79876224508214   -1.32896624803338    0.84643581916489
O           0.89359646923103   -1.15139412253116   -0.86270430660923
O           0.29530203774543   -3.33951106690183    0.00671156257321
H           0.27506291481964   -3.74022560153100    0.86923216671869
O          -0.52830718432406    2.20932403254543   -1.03790426429592
H          -0.90538082447641    2.95310233228206   -1.50853486807259
O          -2.96001561460392   -1.18296351587646   -0.69638645488429
H          -2.20065165601268   -1.34554284056252   -0.10014152278377
H          -3.60952315153523   -0.70588823567772   -0.17715196551858
O           2.05784194294800    1.29437303187911   -0.90839359382787
H           1.82003058377418    0.37187913505141   -1.11442530223995
H           1.23308215160021    1.79434858432303   -1.05689117872619
O          -0.74678960163493    1.25536832296600    1.51941859857349
H          -0.79188754298227    1.69679029228312    0.65014970392287
H          -0.91024899799421    0.30651417538827    1.33993989580207
O          -1.09015764084275    0.00548738961845   -2.27437860572929
H          -0.79104736930264    1.38779367634895   -1.55476105961336
H          -0.34911240857534   -0.52108619981876   -1.92126268202455
H          -1.89070026577251   -0.40990035125143   -1.90222065623629
N           1.82861196292596    0.82044282735921    1.65390646821566
H           0.81408217010801    1.12553749971911    1.78196628088436
H           1.81711441026855   -0.23684787907179    1.66017992832846
H           2.10197670939949    1.11612791911782    0.66471878816854
H           2.44699325707973    1.19788990621137    2.36279970170568
