    26
        -50.46262676  Gyration_radius:  2.62381061194 Dipole_moment: 2.008
 S           1.37725045035942   -1.99201635248993    0.76039613617057
O           0.95130933441327   -1.77419965761942    2.12111339411181
O           0.29468510717447   -1.72353647131604   -0.19341264563282
O           2.59875727934608   -1.29431282268151    0.40635294530138
O           1.67583081077006   -3.54847376004426    0.60744633194734
H           2.24112489054452   -3.72794135078292    1.35238678321318
O          -1.57611636560605    1.73313409769820   -1.47156217236731
H          -1.79508151554627    2.26185161799986   -2.23927162124872
O           0.04418382522192    2.13810149538172    0.74622386256092
H          -0.53452146439534    2.27420393980234   -0.02238490991416
H           0.90922270484904    1.86278144960732    0.38251535521168
O           2.28471546636889    1.13088912258638   -0.41828403547702
H           3.14757636791527    1.54430640277540   -0.36312147447445
H           2.41411678541510    0.19931324692128   -0.08998693712964
O          -3.33276870431772    0.24240812492712   -0.02225296362388
H          -2.80858130864061    0.86642071097058   -0.56546772801862
H          -3.53396023468771   -0.50351221293764   -0.59019083543108
O           0.36196987607111    0.12530636834617   -2.12827228681196
H           1.14956252463748    0.58318179907387   -1.79548438476377
H           0.30484367705485   -0.67521689505590   -1.57026714534708
H          -0.87327337360544    1.08337918948375   -1.77013423365795
N          -1.08235297938865   -0.16097846375126    1.39592673038091
H          -0.92309046836082   -0.53711635216751    2.32799000346979
H          -0.59771152129711   -0.82419482349699    0.72971506372041
H          -2.08325988002892   -0.07286089927801    1.12218984642136
H          -0.61443130441968    0.78908247587676    1.28783690141368
