    26
        -50.47126129  Gyration_radius:  2.42917079239 Dipole_moment: 4.306
 S           0.33600328683645    1.23927392984340    1.41491603553539
O          -0.97192670535306    0.59559880075392    1.34998997911287
O           1.21283689867067    0.55452075860361    2.35355286324286
O           0.92578330281776    1.41408849444661    0.10679118373544
O           0.10087601396502    2.68435478715396    2.00619086806454
H          -0.04860342988307    2.49987110469653    2.92732812588822
O          -0.26940387782660   -1.15783660934292   -2.19626982566303
H          -0.54279423781945   -1.47099213977376   -3.05886636307244
O          -0.85538113684859   -1.88911296467053    0.37651278996162
H          -1.04954700645882   -1.01293790606021    0.76872843433055
H          -0.76769780036607   -1.73188725977286   -0.58271450171818
O          -2.91407526057128    1.44449466446462   -0.25623541553545
H          -3.59412455915740    0.77044891635095   -0.20875150676464
H          -2.24473786306225    1.20416462803747    0.41667850516612
O           2.22456008716490   -0.56443661376248   -1.21117965726655
H           1.45439467933881   -0.85856023521847   -1.73326742750898
H           1.96151433025597    0.30808912785190   -0.86545469540188
O          -0.79887210679469    1.36550034578744   -1.96446679954002
H          -0.13846309490377    1.56264925496735   -1.27447792573273
H          -0.51266432341226   -0.18276597869051   -2.16163292937551
H          -1.66168780140332    1.50290254410948   -1.53018155999905
N           1.65474004594449   -1.68618887973775    1.08216690201223
H           2.20166817398234   -2.42531538952377    1.50871228240019
H           0.65125242927918   -1.98090328114520    0.87011458476918
H           1.58212727060724   -0.83602801471581    1.70662068282954
H           2.06422268500494   -1.34899209464617    0.15519539052032
