    26
        -50.46262688  Gyration_radius:  2.62359016411 Dipole_moment: 2.005
 S          -0.50066319957461    1.67070480617735    1.84344976862326
O          -1.04687496579307    0.39899310935204    1.35541751211110
O           0.83815476050063    1.51067376295885    2.35556023276418
O          -0.63416100830812    2.73169211694918    0.86329819431238
O          -1.42916841957164    2.06405940526231    3.07561603404572
H          -0.95462527128009    2.78689988685208    3.47431717331505
O          -0.21181658886334   -1.98432683867278   -1.91714219795423
H          -0.58663687974711   -2.39785855883328   -2.69520376176219
O           1.68201245291604    0.00631258485407   -1.51593462786888
H           1.16328290683249   -0.72399389678114   -1.89229570008289
H           1.11842758914252    0.80160167912856   -1.59489486541310
O           0.54074723135172   -3.27843469635301    0.35611187892636
H          -0.28742342427721   -3.52088055359756    0.77421613905915
H           0.30857909448306   -2.93030847293772   -0.52940373068930
O          -0.11259276695139    2.04775855023880   -1.56984913865146
H           0.02391949404237    2.86435956342665   -2.05257653507563
H          -0.30424983844806    2.32142375893309   -0.63140030647609
O          -1.82149715203848   -0.08424466216907   -1.16107627756904
H          -0.88020409480685   -1.30151049820548   -1.61344419522308
H          -1.72335630676517    0.04156102069715   -0.19667946310907
H          -1.41643587699089    0.71134529039468   -1.54005320927710
N           1.26997100130406   -0.76423654662044    0.97682417322171
H           1.86983084544569   -0.39060309134815    1.70899240152308
H           1.20914674452533   -1.80342160340723    0.94567878276504
H           0.30748165581213   -0.36591035631365    1.15959459457723
H           1.57815198701453   -0.41165575997574    0.02087710392976
