    26
        -50.46262731  Gyration_radius:  2.62388224253 Dipole_moment: 2.006
 S          -2.34701556443838    0.87267974322957    0.41590775786699
O          -1.12988044219108    0.62349720542729    1.19696827527830
O          -2.14172732291457    1.90437969925913   -0.57085383296319
O          -2.90977722970168   -0.35208118052692   -0.12048331225731
O          -3.39750851793781    1.43567780337947    1.47165848876759
H          -4.11157107568935    1.73620530125747    0.91800603454784
O           2.50956424694484   -1.12608327666264    0.30561958209373
H           3.12059824438691   -1.82071737393264    0.55262190847913
O          -1.19035632534785   -2.02830167760920   -1.06640474353249
H          -1.68787695472272   -2.64131704089730   -1.60973900692191
H          -1.86026433327067   -1.38092934120799   -0.71370664657680
O           0.96704650229167   -0.62844700211977   -1.94874203507113
H           1.66386334717484   -0.93714934976234   -1.34601943354942
H           0.17862222960941   -1.16926015550323   -1.74341348404780
O           2.87381514892832    1.53487353283289    0.74712491951544
H           2.74982385767601    1.63662890389501    1.69249428269352
H           2.88256759398471    0.57089639347055    0.57417429896449
O           0.18064480327025   -1.70788551655153    1.31090733540979
H          -0.28518949152265   -2.11603460167375    0.56455282366301
H           1.64094344447991   -1.34366843110517    0.75659398484838
H          -0.30956301291599   -0.87629466359740    1.46472504863742
N           0.53456590977061    1.58964986945685   -0.58079008329825
H          -0.09174167853562    1.23595620458374    0.19461686697432
H           0.68035246299567    0.78210930459325   -1.25878737625808
H           0.02302385367181    2.34723251706943   -1.02790102134999
H           1.45704028597120    1.85838311181881   -0.17913064234238
