    26
        -50.46875466  Gyration_radius:  2.49834391792 Dipole_moment: 1.336
 S           0.13850958023779    1.56016821397678   -1.49044393897360
O           0.97497161751624    1.32934971434007   -0.31491187447406
O           0.60257515828712    0.78268700394480   -2.62872252552025
O          -1.27014653789718    1.40128175640677   -1.20675079841677
O           0.33673844487447    3.08272375286079   -1.88915134897178
H           1.18807758361694    3.09236488633032   -2.31572661323648
O          -1.81245085098806   -1.15087071592577   -0.59563500395839
H          -1.78792305157783   -0.21960580427662   -0.89541345791924
O           2.20841156569341   -1.00050147052427    0.20820205638975
H           1.93848602966444   -0.07089134770052    0.07434611101327
H           1.86666906229160   -1.24486733632490    1.09428175395036
O           1.01032764399007   -1.38538765439144    2.59883480181656
H           0.06890825659202   -1.19951254607276    2.42142092394997
H           1.30941401287485   -0.70670449877775    3.20661896062637
O          -1.53762438925863   -0.56323428951156    2.07247567655184
H          -1.32481358057464    0.39499370053611    1.87852710297148
H          -2.28255324106613   -0.56203250272804    2.67481478411442
O          -0.94050715833849    1.88851907051633    1.40091886641691
H          -0.06341332072182    1.75993016507578    0.98784154779859
H          -1.50474231411429    2.00858977243010    0.62305863271980
H          -1.76786709195836   -1.10343468744363    0.37705513020827
N           0.53275178821684   -1.65557151792187   -1.67131273117850
H           0.60163906711816   -0.75402163823573   -2.21600065181111
H           1.27310945448020   -1.57356736188975   -0.89940865607163
H          -0.43411131696079   -1.64476647529472   -1.23131619504660
H           0.67556357795829   -2.46563818940389   -2.26360256296166
