    26
        -50.46926216  Gyration_radius:  2.54891396214 Dipole_moment: 4.557
 S           0.00051414518596   -0.19041025317979    0.52823623197556
O          -0.52788363975997   -1.32770179799978    1.23818511877877
O           0.84714941452383    0.67687708107420    1.33768468439808
O           0.71933283118177   -0.59844319938817   -0.69696683543318
O          -1.17074044662254    0.71801292369050    0.06143688536261
O          -3.13194715420730   -1.74801882671573    1.57548978357321
H          -2.15486831471635   -1.67283558363981    1.55287055757652
H          -3.42066653201830   -1.24279699387656    2.33653254332691
O           0.46437792725214    2.94737349808296    0.04073654248274
H          -0.45401790849086    2.85882757713477   -0.23065077627076
H           0.58094618786315    2.24865602836594    0.72118550039913
O          -0.90203779676953   -2.64643569916212   -1.25166864381999
H          -0.20843921448886   -1.96809066521120   -1.15500784976680
H          -0.95977200889623   -3.06306258226512   -0.38686368887303
O           3.47039852344007    0.78158819953461    0.93153711814472
H           2.54467799376567    0.76071047490849    1.26168289402239
H           3.83903026494359   -0.08216377987527    1.12325903148683
H           2.93168348596964    1.29871993603508   -0.59524106541645
O          -2.85747585194727   -0.85620397600763   -0.95061112959111
H          -2.26495804791815   -1.57522937853769   -1.27006482564927
H          -3.24722399634713   -1.20654341689257   -0.12443873217629
H          -1.88117033359510    0.12030070773721   -0.38593246539375
N           2.16381580853205    1.43086298494273   -1.29296653967399
H           1.56078831103181    0.54257823257485   -1.18874371109516
H           2.50479310412752    1.57425635753215   -2.23676922649094
H           1.55369324794560    2.21917216112891   -0.94291140185852
