    26
        -50.46085911  Gyration_radius:  2.53272132395 Dipole_moment: 4.742
 S          -1.72872061069704    0.82426246021360    0.84050769034220
O          -1.88674760843184    1.31193985743452    2.19506216605713
O          -0.73070254113232    1.62467121653165    0.10973209092240
O          -1.43135973697270   -0.58508097236892    0.76365353109435
O          -3.10328993668351    1.05702766556756    0.09510938293702
H          -3.34572040081324    1.94640848001480    0.33610392053524
O           2.25065347891438   -0.78666098735965   -0.54745087209852
H           2.97908125625653   -1.40830717658361   -0.54278871215636
O          -0.61457490533245   -1.10666151277202   -3.24259789200153
H          -0.23196147644895   -1.28803891283226   -4.10178219790574
H          -0.24532287786523   -0.24302382729662   -2.95019724833190
O           0.63910128105609    1.00513475088194   -2.15920410025195
H           0.06253399989848    1.30795201489527   -1.43528556114711
H           1.35989484828617    0.52013000160217   -1.73729708118659
O          -0.13481899393786   -0.36943532076172    3.18246997965420
H          -0.47137058727019   -1.14728119426265    2.72375241736902
H          -0.84664732561308    0.29850804122199    3.05118817604663
O           0.08380931676828   -2.11324934433499   -0.82696397107714
H          -0.54385722389128   -1.65054538706796   -0.23864201112589
H          -0.24249285386556   -1.92339127174025   -1.73013148112630
H           1.40731630553358   -1.34771656606978   -0.66700219106172
N           1.38572530577011    0.82254471432925    1.38808842147271
H           2.03422034979506    1.52171650909109    1.73451012745737
H           0.92413220349359    0.28991197634819    2.18623719640596
H           0.57907959557256    1.27648341879716    0.85988563187106
H           1.85203912751896    0.16270137652207    0.71304259725656
