    26
        -50.46058468  Gyration_radius:  2.53704696895 Dipole_moment: 6.722
 S           0.02368766784964   -2.15419529384039    0.48170046640008
O           0.34910028321722   -2.54136025602958   -0.87293227968486
O           1.21328098756772   -1.75776238737006    1.23635409259790
O          -1.01606044639553   -1.14568015800550    0.56881357270442
O          -0.54716525635362   -3.45029271517408    1.18883226780329
H           0.02360711840607   -4.11489716596042    0.81893385331518
O           0.74585100493562    1.44855486551231   -1.43134171397147
H           1.10555099979704    1.98159506727935   -2.14113424393210
O          -2.73401359927685   -0.48385660392051   -1.38046895986720
H          -2.23862723113260   -0.88853642924467   -0.64223070531016
H          -3.02091022583163    0.37277106925860   -1.05457985615882
O          -1.22294134996861    1.53432845234538    0.57463106658041
H          -1.23770134692827    0.56592584689702    0.69750158988431
H          -0.68138396448091    1.67243914485319   -0.21706575548841
O           0.50398304470996    2.28054146725684    2.41606698268891
H           0.50374052370067    3.23531838589945    2.49254514663147
H          -0.28011725685150    2.04313686863997    1.85545581421894
O          -0.28744062206216   -0.59438939435228   -2.54518635284298
H           0.34500430794969    0.62717037448495   -1.88614658126584
H           0.00862942670207   -1.37909651877804   -2.03542101392877
H          -1.24809889695977   -0.54288663520149   -2.36624651190286
N           1.95925906118776    0.66922407162395    0.84693887340253
H           2.97161604012332    0.72108539452354    0.87897725115855
H           1.59195992203182    0.95586232513441   -0.09045022400495
H           1.64450194420547   -0.34848887731929    1.03691099142134
H           1.52468787395676    1.29348913142904    1.56954221953126
