    26
        -50.47229211  Gyration_radius:  2.48066481698 Dipole_moment: 1.994
 S           1.55211331213124   -1.64819308580821   -0.25726020003434
O           1.66996307816404   -0.33199077552304    0.36231044607581
O           0.82300970118627   -2.57779458462543    0.58383387628192
O           1.04555992268824   -1.55837646622950   -1.61162600990470
O           3.02151996044278   -2.23189972375087   -0.36751618001142
H           3.13502416912358   -2.61543282265998    0.49555539751632
O           1.22674154963940    2.17806750264000   -0.50408838134563
H           1.60240594544857    1.35908262729231   -0.12731369301431
O          -2.25042480520009    0.58180877561078   -0.61925649379560
H          -1.97601095321371    1.27647162923759    0.00617757632226
H          -2.10868196891442   -0.26101745148652   -0.14807495216933
O          -0.98551141049437    2.27606956415159    1.14459053085897
H          -1.25754587853374    2.92876240197470    1.78994487331181
H          -0.64655339789501    1.48952223410034    1.66198982524017
O          -1.60404143930062   -1.69268400314850    0.76398594022664
H          -0.69161455677773   -2.06479601705660    0.65471938078586
H          -2.19558865385048   -2.44680519188922    0.77415424907156
O          -0.10328847509868    0.11115201806090    2.29514866661168
H           0.50229158345993    2.42046410028021    0.10065377487269
H          -0.76333013779057   -0.56161645853748    2.07830877653013
H           0.64842003256988   -0.08016491238688    1.69605262890101
N          -0.13533768565249    0.69862849457630   -2.18895370623587
H          -1.07498585460956    0.64565980125712   -1.69507819185518
H           0.44730463381173    1.42203268499993   -1.66754538981966
H           0.35098819331124   -0.23127386547748   -2.04663606805268
H          -0.23242685453269    0.91432353458238   -3.17407667635190
