    26
        -50.46262631  Gyration_radius:  2.62411419605 Dipole_moment: 2.011
 S          -0.98294236513200   -0.60280351079218    2.26171402224360
O           0.21072470387925   -1.35983952581081    2.58739655131499
O          -0.92670825105269    0.78155564358657    2.66306627895065
O          -1.35195022325812   -0.74021188714177    0.84794459900633
O          -2.18546919124728   -1.27246404263765    3.06194432694928
H          -2.01612091802556   -1.00313432537951    3.95941845626890
O           0.61085033699734    0.06579361631556   -2.69666047207496
H           0.90640956734168   -0.31101522149560   -3.52586625591918
O           1.91658921015513    1.10913980368838   -0.47924319286329
H           1.69468387404187    0.82482319627285   -1.38143484067888
H           2.08905157330808    0.28835521178074    0.02382078872240
O           2.09518065124870   -1.26831207651483    0.82630256086116
H           2.88786031708033   -1.57483281276839    1.26917578312763
H           1.37626926216744   -1.29916115445646    1.51518067046976
O          -1.45972307555979    1.80808400731092   -2.40285101594182
H          -2.24209270828341    1.27193179373167   -2.54414927447645
H          -0.69453938743738    1.24180415418657   -2.63340060619603
O           0.15595808139017   -1.89029154243552   -1.04134196082235
H           0.38444034659926   -0.70897730548700   -2.10187913911106
H           0.96681543704499   -1.92311442390823   -0.51027012967495
H          -0.52844031665619   -1.60514906359264   -0.40433642290926
N          -0.59070969451504    1.66422493697146    0.13922032125148
H          -0.77650069477429    2.24152440166683    0.95645427737295
H          -1.03343722152438    1.99523824914773   -0.74331404686231
H           0.45681031464717    1.56410209559331   -0.02154392037803
H          -0.96300960855302    0.70272980221530    0.37465264137210
