    26
        -50.47168669  Gyration_radius:  2.49110140475 Dipole_moment: 2.999
 S           2.10521480491158    0.90217065871223    0.23396659125093
O           1.44292957405263    2.15614564457061    0.57690492453715
O           1.48616594051310   -0.21401010187214    0.94468091100291
O           2.21387975776544    0.67103984299880   -1.18398052270775
O           3.58108644769975    1.02637447476889    0.79115086053083
H           3.41955752829887    1.32053713871800    1.68096719761828
O          -1.88065417851870   -1.92834540658533    0.33021272771999
H          -2.33912757412496   -2.76863237549867    0.33942956093257
O           0.26625146012843   -0.27966673054992   -2.59644952524092
H           0.46760223930937   -0.12737545495762   -3.52073731823033
H           1.01449110126027    0.12173375259422   -2.08481486480542
O          -0.80912474833243   -0.38409675263055    2.33951780399186
H          -1.29512293070201   -1.03345852749233    1.79933634728908
H           0.11169891466825   -0.43220202030002    2.01630349244071
O          -1.99958455071571    0.34196644383883   -1.22258842012850
H          -2.14522991666103   -0.48932306951206   -0.73539346453946
H          -1.24371402322687    0.16220468921762   -1.81386763090473
O           0.54155854107126   -2.19205606468623   -0.58297313270869
H           0.50178878008460   -1.76269273068141   -1.45013379733293
H           1.01455253480828   -1.55544734523647   -0.00855278893894
H          -0.95708731667856   -2.11379675184892   -0.01135336331012
N          -1.11693185947638    1.74308441016723    0.83314731170985
H          -1.65818669486757    2.55209249990053    1.11563811483206
H          -1.11961202109703    0.97862646307591    1.57521672808285
H          -1.50499783751206    1.30548653641128   -0.05452478960644
H          -0.09740398266283    1.99964079687770    0.68889704651575
