    26
        -50.46309156  Gyration_radius:  2.44668421385 Dipole_moment: 4.788
 S           0.61059030285580   -1.57864277962169    1.03302313401513
O           1.17776788944511   -1.06783444147830   -0.22445053814779
O           1.46279070718299   -1.36581220930937    2.16720898212177
O          -0.76800944868374   -1.16713203810822    1.18387836104286
O           0.53403898107167   -3.16856261394155    0.81599506737269
H           1.35992791595654   -3.48732381506124    1.16757754374086
O          -1.39863514987071    1.52011106896717    0.71594306997297
H          -1.94655640541415    0.92246079300454    1.23208459963567
O          -2.06141821682118   -2.35378017490246   -0.77595037149683
H          -1.70510885319861   -2.01354370005394    0.07458926094787
H          -1.64862295375018   -3.21083274574011   -0.89463775039643
O          -0.06956990441412    2.68073854291090   -1.52749144355142
H          -0.58224605447875    2.59982680956742   -0.71095331483366
H           0.19820448655010    3.59905041450965   -1.59076301004010
O           2.28181443949106    1.42128112575543   -0.53196100062520
H           1.56207661368618    1.82029005230228   -1.04398077759414
H           2.11731317387415    0.46516318486521   -0.52832907397234
O           0.95605610528376    1.28158989813061    1.81937050902721
H           1.15310133433064    0.37933210073104    2.11748445671146
H           1.60428126222195    1.47472204803718    1.11019497512253
H          -0.51487843009045    1.47797969496050    1.18419985714199
N          -0.87879175225024   -0.03621553296879   -1.40023998836171
H          -1.19690404530058    0.58988009474750   -0.60726106043191
H          -0.75697810335649    0.50758859351199   -2.24973003471713
H           0.03803791547342   -0.44929555797565   -1.04593981879610
H          -1.52828181980177   -0.84103884282503   -1.48986162388437
