    26
        -50.46047592  Gyration_radius:  2.51623398739 Dipole_moment: 5.310
 S           0.95360088938708   -1.95314303869637    0.34261177593827
O          -0.14968178363869   -1.20452822315839    0.92416072262739
O           0.70954632979657   -2.44766199922267   -0.98821504079615
O           2.19636522905404   -1.18981733036193    0.45924562447845
O           1.13326528197688   -3.24131122319843    1.25715751623913
H           1.41829593393617   -3.88249460884238    0.61487226213668
O           0.35560859398302    1.95115593555059   -1.07752981455483
H           0.61248950643905    2.58869004983708   -1.74459617074609
O          -2.74058343877748   -0.16758951591187   -2.05781021496462
H          -2.61337244055250    0.14779000408663   -1.13966397678782
H          -3.36617665054996    0.42827015111210   -2.47119378401319
O          -1.83043330528232    0.81481713895504    0.31104687970802
H          -1.20625146775931    1.40348665334263   -0.13593555539744
H          -1.32894434211663   -0.00676407216890    0.47676265214521
O          -0.37720813067649    0.65765952525438    2.80432949109629
H          -0.33342155848308   -0.23245738750479    2.40197323067252
H          -1.17929426379705    1.04216324654465    2.42814298997049
O          -0.00307367357887   -0.26223224380994   -2.32052623563337
H           0.26490135987978    1.06854212109706   -1.56815174135675
H           0.30499610991214   -1.08978744483592   -1.89783765449555
H          -0.97284509475769   -0.35288231547589   -2.38525293247963
N           1.64579374001203    1.21437856149842    1.16459122058709
H           1.22423033863169    1.62721186098227    0.30217788728835
H           2.44225303813872    1.75116010521986    1.48896099058324
H           0.89929081565873    1.12765659420052    1.90844176025116
H           1.94064900314922    0.20768743550410    0.90223812749000
