    26
        -50.47229184  Gyration_radius:  2.48094258244 Dipole_moment: 2.006
 S          -0.88751945160825   -1.36747372276348    1.59265068243111
O          -1.93018861502936   -1.85153766638543    0.70840074181041
O           0.42380607000562   -1.39419564678715    0.95237501442300
O          -1.16868422592952   -0.07384725783189    2.18124522917614
O          -0.82936505541212   -2.40196622538409    2.79204864821924
H          -1.03730465778942   -3.21546801292108    2.34506437886432
O           1.79080881747001    0.62852889386329   -1.96530004092434
H           2.34128955416686    0.58130627309065   -2.74711259112333
O          -2.09877020723059   -0.17822876319248   -1.26094196417683
H          -2.07566341977175   -0.79249071871189   -0.48306805803407
H          -3.02196311536565   -0.10018077433321   -1.50647611223135
O           2.41495304882568    0.40177760946798    0.71510691873858
H           2.40961652683005    0.50701254860665   -0.25342853053970
H           1.87025869370310   -0.39138359852271    0.88283481058462
O          -0.46454817750316    2.01964523329543   -1.21859666031369
H           0.34930767927831    1.66662556204348   -1.62132538212385
H          -1.11503653555665    1.29397683183103   -1.27120137907781
O           0.32594693130519   -1.51078463135985   -1.70382105558749
H           0.38994785172103   -1.61755368047433   -0.73174028122829
H          -0.57801106856619   -1.20189302107397   -1.85467179042426
H           1.27813105698646   -0.22978855985350   -1.92731378728346
N           0.32391196103311    1.87702452604727    1.29299331893525
H          -0.30231067456621    1.14088956528936    1.72586536080766
H          -0.05128650647180    2.08257632563630    0.31989417598458
H           0.36544347687721    2.70830726564121    1.87062076644521
H           1.27723003259919    1.41912162478464    1.16589758664127
