    26
        -50.47039699  Gyration_radius:  2.40130422275 Dipole_moment: 2.043
 S           0.30331169840362   -1.73919034279880    0.29434167486168
O          -0.08315733335882   -1.53936552502861   -1.08944410333686
O           1.56675237779208   -1.06848249542468    0.60027639682370
O          -0.72831602117594   -1.39601918318239    1.24759044732507
O           0.56334207172358   -3.29159131159410    0.43660819265394
H           0.69046503332798   -3.55587775119676   -0.46846420203128
O           1.07601009918219    2.20739093960270   -1.30411197084708
H           1.57123756910200    1.44838432033882   -1.68881142873989
O          -3.15522023184861   -0.91905530365008    0.11007327313746
H          -3.82811199968452   -1.14378145162638    0.75386615678948
H          -2.30551174523730   -1.20086394471784    0.49470762391442
O           2.13955234606391   -0.18280179597313   -1.87899557534101
H           1.38674026605074   -0.63800255280031   -2.27319734811556
H           2.15925516383655   -0.52602192478377   -0.96760876279524
O          -1.17754059302104    1.21678064248489    1.72037279693107
H          -1.43896634460994    1.32173548292553    0.78529443048693
H          -1.12745323169223    0.24941149336508    1.82839433794608
O          -1.32553685617203    0.82307337402126   -0.99484572673398
H           0.13992631643431    1.97489191034761   -1.40092692340309
H          -0.85238670102954   -0.02768765944100   -1.09801918792006
H          -2.25281430233161    0.55241963309222   -0.97553240546475
N           1.36268628192098    1.50671740768440    1.19793052140625
H           2.03710835442779    1.96062343296953    1.80263793754044
H           1.33729221473889    1.93517300973777    0.21373739106638
H           1.57377065711559    0.48642622394833    1.07546871726389
H           0.36756492004364    1.54571337172217    1.57865773655070
