    26
        -50.46502287  Gyration_radius:  2.52090776939 Dipole_moment: 2.035
 S          -0.23187957195430   -1.80993992298217    0.95352100204167
O          -1.11815482192421   -2.16144246010522   -0.12904307386300
O           1.17996015132111   -1.91346404816861    0.60910088268002
O          -0.53260159093106   -0.52650624976341    1.57157309974960
O          -0.49861787049659   -2.89272290127340    2.08954619715250
H          -0.74035881689190   -3.65594744786393    1.57474243575092
O           2.10150736086451    0.06553716114294   -2.66153685898224
H           2.29070651703842   -0.80921304992708   -3.00556569428507
O          -1.72357836233338    2.06133697630976   -0.61695295587941
H          -2.35235872460794    2.41437410573865   -1.24750903022164
H          -2.24665192047076    1.55050195531292    0.04749610954589
O          -2.89883173704859    0.56600953391976    1.23941361907668
H          -3.07333180056283    0.95319140373840    2.09935974035838
H          -2.08648430620205    0.02212132401750    1.35257953045285
O           0.55458109997604    1.84519019865397    0.99379918033031
H           0.14352079457158    1.03841868957085    1.36690555111470
H          -0.09655417416591    2.17656064846632    0.35877020984888
O          -0.30587943096903   -0.10905712070998   -1.60977415571689
H           1.14264887270924    0.05511494181563   -2.43353242395790
H          -0.65445192597468   -0.89466322307357   -1.15147949510046
H          -0.81994523301164    0.65442694531822   -1.29759588074531
N           2.42466479746678    0.28679716084620   -0.01975760412626
H           1.96990829398661   -0.63327532007425    0.26973217513292
H           3.34607039841884    0.38047702854726    0.39187409437725
H           2.45860053391148    0.28921660434630   -1.07010362603111
H           1.76751147727672    1.04695705622528    0.32443700131768
