    26
        -50.45870213  Gyration_radius:  2.54205819591 Dipole_moment: 6.063
 S           1.91325447556332   -1.04301154177457   -0.41367265152273
O           1.85842053499077   -0.00322186484633    0.61323267367636
O           1.40649064118796   -2.30532789144372    0.13891961963400
O           1.28414682725913   -0.65506283627966   -1.64138168814757
O           3.44432692327117   -1.30288898832217   -0.71465161380834
H           3.73441822538320   -1.69827570831031    0.10045655692923
O          -2.19641455873549   -0.14203298574087   -0.22775567898513
H          -3.14400356723927   -0.09542586636508   -0.35803952692634
O          -0.55581944849721    2.83376331611853   -1.95409780537161
H          -0.95206401535599    3.70346461756752   -1.89809350479989
H          -0.32084808105803    2.57174626026544   -1.03978720843711
O           0.45019928450209    0.19640720941150    2.84821069847228
H           0.04418933052733    1.04559172235467    2.63378434496735
H           1.18468196450927    0.12417701580478    2.20202216350243
O          -0.21558361131961    1.72624111133718    0.50636610234952
H          -0.95677475180607    1.13032657551864    0.31884296857344
H           0.59506801756196    1.19006670643482    0.40458452450146
O          -1.09265137285805    0.19744205025336   -2.50033529653903
H          -0.93936552576069    1.15926488966179   -2.53488849783550
H          -0.20595997395612   -0.18333478588803   -2.34815323106684
H          -1.78481910878295   -0.05895221385027   -1.15882881037689
N          -0.73509748479106   -1.69344308463134    1.41491681411143
H          -1.38260938111306   -1.20483841321810    0.75729079167081
H           0.13315742909875   -2.02364199218052    0.86218861713663
H          -0.37503947822772   -0.99024461397526    2.12268729775763
H          -1.19130330432785   -2.47878869787994    1.86618234051381
