    26
        -50.45602553  Gyration_radius:  2.61286648291 Dipole_moment: 5.395
 S           2.03151073063423   -1.55264098362522    0.43804399561606
O           2.31835873716771   -0.65296499368597    1.56170552835617
O           1.18231738930527   -2.66116443464225    0.84502691349032
O           1.53249508324130   -0.82569783430223   -0.70088538500646
O           3.42362157159389   -2.19163746569490    0.01661796100873
H           3.63874415640776   -2.76129645253946    0.74993045340295
O           0.32919587297057    2.14145216019111   -1.09931439423965
H           1.22917684882997    2.37494710379645   -1.33020297784422
O          -2.19121136434725    2.25557458545139    0.04276902344507
H          -2.87263019358567    2.77963583026181   -0.38067786379026
H          -1.36921083979374    2.43020244157376   -0.44095179998299
O          -2.40811171565881   -0.36491795147581   -0.94586938961353
H          -2.03102355302983   -0.94276042407452   -0.26621124855801
H          -2.47408779330536    0.51350517830491   -0.53679256064410
O          -1.08522519666858   -1.50991152392862    1.21118289114247
H          -1.52366744314104   -2.00528179327213    1.90524969008529
H          -0.24419832238298   -2.00892910783079    1.01177435262185
O          -0.24623533269275    0.07842088345716   -2.49317250320783
H           0.42906024015797   -0.45169374594962   -2.03557548834061
H          -1.10447174284341   -0.19048149446131   -2.09831920984259
H           0.08859699997641    1.37487019064011   -1.72826711021345
N           0.26056310056022    0.85761765607025    1.26749084399176
H           1.18842610794093    0.34504630153129    1.45237481283427
H           0.31774095238174    1.33429284885928    0.32697534500197
H          -0.45236657888861    0.10227688872973    1.23534380102784
H           0.03263228516694    1.53153611661745    1.99175433925880
