    26
        -50.46603987  Gyration_radius:  2.4252508156 Dipole_moment: 5.944
 S           1.79286264798023    0.99724517564165    0.00256805158691
O           1.44473023117210    0.09617680579678   -1.08096904588568
O           1.41758561352708    2.36861192984989   -0.20562234231250
O           1.30023805398875    0.44083065164277    1.26951789702964
O           3.37425624141435    0.98758781348457    0.10895844859489
H           3.53830677558869    1.91794978497672    0.21572539558209
O          -2.18500598355336   -0.90652270016193    0.86046590200342
H          -3.08998682860600   -1.03288136123168    1.14557783496014
O          -1.18088304894148   -0.15961731784202   -1.69193389370397
H          -0.24339115699707    0.01521393220475   -1.49145333662101
H          -1.60831502609457   -0.42639855156709   -0.86468691513203
O           0.66980039789318   -2.37625607856719   -1.69627468908540
H           1.26011422258685   -1.60336274624724   -1.73639867913946
H          -0.14980265513492   -2.06389830313939   -2.10504186527411
O          -1.24246367135376    2.49790719159896   -0.69873437388410
H          -0.27942863882275    2.63010004013712   -0.64419338274313
H          -1.38195508267596    1.75909416464738   -1.31091467583061
O          -1.24238524501552    1.32643880439553    1.68420964267938
H          -1.37833943650277    1.91150584770296    0.90023872384744
H          -1.88805550572125   -0.01235688989564    1.23688466901189
H          -0.28560473479953    1.15277955256124    1.70392039128530
N           0.27684260534239   -1.92893794234320    0.89320996848771
H           0.46185450495368   -2.22723693928835   -0.11109825679326
H          -0.74407971766001   -1.73046856701812    0.99242447437027
H           0.58510187382394   -2.63190375303123    1.55603277232043
H           0.77800357360475   -1.00160054431107    1.06758726464030
