    26
        -50.45490173  Gyration_radius:  2.54807385817 Dipole_moment: 5.620
 S          -2.01078550081672   -0.41215017887085    1.17310739890542
O          -2.18865378571356    0.84271688914832    1.85688061901148
O          -1.53635930018533   -0.30875945106189   -0.19062332027210
O          -1.19442418004134   -1.37012541355046    1.93184933363362
O          -3.46332523177304   -1.06831619580553    1.08759371373133
H          -3.90569055020774   -0.66207672156357    1.82631085741383
O           2.08308307077232    0.52488655180963    0.76593677087921
H           2.68750160452255    0.87983881637962    1.41868079785959
O          -0.02077954917791   -1.64239107239048   -1.77820920014842
H          -0.54293786139728   -2.03854543108923   -2.47672199730316
H          -0.65272003000419   -1.08514668634267   -1.24760121608885
O          -0.07752177297083    2.56958578946652   -1.75584618884370
H           0.53755239789704    1.84039883237080   -1.98821630308902
H           0.37900797400537    3.38476843677897   -1.96903479288813
O           1.70202551316970    0.54870991887137   -2.03830092393356
H           1.13084602874088   -0.23285575257866   -2.09655102468333
H           2.01213815130304    0.57747743864925   -1.12202451467138
O           0.01723365876447    2.01462856353506    0.90433914448592
H          -0.19017084811715    2.24066078817581   -0.02753589601376
H          -0.80221370894249    1.63917130039307    1.27812334862872
H           1.24530508185787    1.10256471673748    0.83272911969096
N           0.98369396214984   -1.89644514428139    0.72206819278957
H           0.73538030718147   -2.04890852700535   -0.27134725087382
H           1.52315096777775   -0.99539611428168    0.79105507426744
H           0.04975753152293   -1.72561863891316    1.26390876041753
H           1.49890607969371   -2.67867271458271    1.10942947709335
