    26
        -50.46173123  Gyration_radius:  2.49834813367 Dipole_moment: 7.274
 S           0.71885457537251   -0.78381527488779   -2.11269623956938
O           0.39833947737857    0.59860503741620   -1.75334785334000
O           1.98746576461207   -1.17804483395667   -1.49144015097378
O          -0.35302891691384   -1.70065207787976   -1.85769218148881
O           0.99053326223169   -0.78023887246967   -3.67166907720453
H           1.73083603535492   -0.18608976848414   -3.73309773068141
O          -1.17463876521755    1.65705407801417    1.57902737908641
H          -1.83121394621060    2.20679953238221    2.00745878517985
O          -0.47320210259708   -0.83346537792067    2.22073375784983
H          -0.81293324166661   -1.06858515015875    3.08500046703480
H          -0.76485789016957    0.09327616260006    2.04114337027571
O          -2.22300310075013   -1.61743490597101    0.05934131653221
H          -1.63040338175943   -1.58224078615718    0.82131334034012
H          -1.65136554954563   -1.83639683595865   -0.69901487922174
O           1.25323215047836    2.00939284842665    0.33952378279320
H           0.42313602482186    2.12230690497415    0.83530640337593
H           0.97517017301900    1.67823482300148   -0.54100809348872
O          -2.05059627135931    0.94603215949682   -0.70908439136620
H          -2.33386222565610    0.02506547148650   -0.51202572985922
H          -1.56089527410920    1.42762011254030    0.66209547958039
H          -1.23107724927036    0.84920361639088   -1.23332333319431
N           1.93759395144083   -0.42563894399004    0.96048612740919
H           1.98182187860788   -0.82854604826244   -0.04041302184076
H           1.78229980024712    0.62927289667979    0.81863693637782
H           1.11568666655565   -0.79954474840179    1.46195110782824
H           2.79610817510588   -0.62217003891120    1.46279441856584
