    26
        -50.46253660  Gyration_radius:  2.45936417133 Dipole_moment: 5.006
 S          -1.08016757853361   -1.70784629214457   -0.43839129605068
O          -1.27167565659812   -1.58215787551163   -1.85914188775198
O           0.20490577893396   -2.29892102605455   -0.07127774092217
O          -1.31719644215932   -0.48747245577711    0.31576338496682
O          -2.19216654914719   -2.72750827358420    0.06978418517517
H          -2.24260359658930   -3.34192003801260   -0.65515221439591
O           2.16168535098219    1.02652378780337   -0.17929668006006
H           2.98733921838289    1.33058062727289   -0.55777242579770
O          -0.40020887432491    2.04201698658897    0.47115636074879
H          -0.78726700679127    1.15290319349524    0.36044343171428
H           0.54768013003263    1.93046915887398    0.31486532045324
O          -1.07928827664519    2.17677964300754   -2.17925795694730
H          -0.93281680571891    2.37725530658833   -1.23399563812036
H          -1.88435073436245    1.65676743815237   -2.22228501018949
O          -0.66752914912610    0.28994426355094    2.77620357042828
H          -0.66284762767606    1.23191184525854    2.56369189232835
H          -1.18056210559349   -0.11505493589312    2.04923767817480
O           0.73026327636352    0.16203056612024   -2.14210998450034
H           0.17181130459916    0.94241927245092   -2.34956085766848
H           1.63645755200547    0.64170636583417   -0.94712266198739
H           0.10177950614104   -0.57977824027345   -2.08388265568009
N           1.45587642307193   -0.82590009722376    1.62406762895460
H           0.95392547199307   -1.50149393154123    0.94847798209743
H           2.14520366815777   -1.31789842748059    2.18118838295531
H           1.89414349302472   -0.09539631481279    1.02032496206762
H           0.70760921957449   -0.37996056669197    2.22404221000380
