    26
        -50.46262751  Gyration_radius:  2.62391288579 Dipole_moment: 2.002
 S          -0.13610957058359   -1.46476229211091    2.06825321359714
O           0.42444188810766   -0.15958301475329    1.69962503084533
O          -1.57532414307844   -1.46892626669541    1.97463869037883
O           0.50391290329459   -2.55338378939127    1.35418589339146
O           0.23527124677507   -1.64494240236039    3.60597338169817
H          -0.26485097448427   -2.41613939000243    3.85469000543240
O           0.77528095708621    1.87478200303725   -1.88122347907809
H           1.39296853186792    2.29034552879175   -2.48343218587671
O           0.97474666056684   -2.10078074441334   -1.14264241350811
H           0.78576222266355   -2.28631022635196   -0.18236219041140
H           1.13865092225110   -2.95657918634574   -1.54170872464923
O          -0.88726096960388   -0.34234103166942   -2.05414218395232
H          -0.25982853431651   -1.05042004917453   -1.80641810458639
H          -0.34090680949639    0.43170421013194   -2.26969170236415
O          -0.99361013953773    3.18115079718405   -0.27683781991741
H          -0.37641435698194    2.81705928558289   -0.94447340303458
H          -0.44778778087448    3.57158968398018    0.40807913226471
O           2.11885555029964    0.27811208627301   -0.32594787796464
H           1.64254046023286    0.19788534519518    0.52387213254196
H           1.99646951127147   -0.58928770640602   -0.74214868131928
H           1.32581207815157    1.31623563568221   -1.25660791806531
N          -1.63514141149268    0.62937770572242    0.28550143703691
H          -1.47789372714158    0.17835585432711   -0.66581757990780
H          -1.68046998401426    1.66232884760678    0.16147314764447
H          -2.44035895037316    0.21653561596164    0.75104603692166
H          -0.79875556057115    0.38799351023409    0.88611616284246
