    26
        -50.46810604  Gyration_radius:  2.48150625747 Dipole_moment: 3.400
 S           0.31189927969684   -1.60253459773436   -0.97845610456644
O           0.72240954468286   -1.97094951813868    0.37127857868908
O          -1.07852316468052   -1.90288588049066   -1.24776458267675
O           0.67114104608287   -0.22798102092080   -1.27333887103161
O           1.15316699796748   -2.50103987935016   -1.97899739308025
H           0.61297431720676   -3.27881962665984   -2.07725808860743
O           2.31184052235935    2.21035251173684    0.51347449789447
H           3.13808320383162    1.91456756290367    0.12731992666803
O          -1.74622041185256    0.89090560252009   -1.12806740526896
H          -0.88313973033370    0.44534747262662   -1.23843893114775
H          -2.39151281776378    0.24341809226745   -1.42194268069109
O          -1.69358897367286    0.72872815968019    1.56465258824587
H          -1.82630241926298    0.98830711243239    0.62959156493238
H          -1.97565818993658   -0.21180202472306    1.59947734453235
O          -1.94894264386773   -1.92383872893505    1.26237201362091
H          -1.16560358715944   -2.34096553233140    1.63119311337861
H          -1.80212181959258   -1.96248573997948    0.29653240361927
O           0.80350824303656    2.45927869176369   -1.65040514649632
H           0.88167009519494    1.49762988425955   -1.75635154259144
H          -0.13717519849876    2.61912942867357   -1.52861013625251
H           1.74235904594885    2.46542253981000   -0.25333508290725
N           0.87671806917987    0.29382373757478    1.72025038047089
H           0.93260623510558   -0.61091752488297    1.18294595064353
H           1.45138288574280    1.03696003649372    1.24272706544365
H          -0.16279909935990    0.57946505301631    1.71879053851723
H           1.20182858004213    0.16088417842380    2.67235997869615
