    26
        -50.46810548  Gyration_radius:  2.48116178562 Dipole_moment: 3.438
 S          -1.78911960611845   -0.35411079849290    0.54019028452423
O          -1.53379493275420    0.95335966769594    1.13332882669047
O          -2.37796632491897   -0.26941312135510   -0.77953495096536
O          -0.60267845058919   -1.18773204122212    0.58884582459365
O          -2.86734242419294   -1.07304564239535    1.45484204381932
H          -3.69466115692132   -0.76797238517405    1.09581836912773
O           2.55602187064527   -0.71237925100015    1.85655205542920
H           2.25974880602689   -1.08779949771011    2.68754146982162
O           1.01755110857418    1.42950195451111   -1.66296594540623
H           0.13551525335939    1.85401885908833   -1.74673195884122
H           0.86569228358008    0.49835438636827   -1.92631326680986
O           0.10086662550259   -1.08763996029084   -1.98319906010568
H          -0.21574845986258   -1.16055631898970   -1.06130889613707
H          -0.69964156891403   -1.01582762792240   -2.50851481879724
O          -1.54614195516503    2.17468473445985   -1.40550371121909
H          -1.93739792607152    1.28118357253145   -1.33824533347575
H          -1.66139430469536    2.54356142464585   -0.52559548390872
O           1.70673064744682   -2.54709950233537    0.14444010037548
H           2.40161763888288   -1.41852756752504    1.18205920717484
H           0.80446855926036   -2.30113289536749    0.40439144897188
H           1.75705274512661   -2.34640604860088   -0.79491991445168
N           1.07325781934639    1.32748771445297    0.94609107178151
H           1.64708402170440    0.52471250027234    1.31606703096735
H           0.05003133646818    1.16135085191461    1.13547369162329
H           1.37586963440717    2.19710217561256    1.37281040955623
H           1.17437876987888    1.38432480682439   -0.12561851433006
