    26
        -50.46173109  Gyration_radius:  2.4982593755 Dipole_moment: 7.265
 S           0.57659620640773   -1.09790652765887   -2.01370250052012
O           0.88556126028959    0.21226713210714   -2.59567042765808
O           1.24618888580696   -1.23719531486885   -0.71943357158799
O          -0.82687053469917   -1.38444204955017   -1.96162036949108
O           1.25073823846084   -2.16073955234053   -2.97299592907987
H           2.15685387165439   -1.87114583706989   -2.96916139737842
O          -0.06546431052265    0.26380192731356    2.55812974927365
H          -0.22598843996113    0.11702664785303    3.49062269335620
O           2.10045083605405    0.68367324620118    0.91772508187829
H           1.50355586928992    0.55776338286818    1.67618996517337
H           1.97781071975971   -0.11876959609091    0.36678652186306
O          -2.55623619245761   -1.01604353091085    0.05152771400670
H          -2.11016459169229   -1.23233078860887   -0.78752867111094
H          -2.41060733646912   -0.06970021083974    0.17888178010105
O          -1.60900467711282    1.59716257302402    0.84237306618057
H          -2.26558984124790    2.11459225736859    1.31019352583041
H          -1.07253041377637    1.12876939516371    1.52732025769447
O          -0.37242054000062   -1.93729953284832    1.30564735892676
H          -0.17065260481021   -0.64854805512672    2.11184697043432
H          -1.26863478221211   -1.80018709216999    0.92429829476831
H           0.23920089563062   -1.84321126943399    0.54884111958486
N           0.59204212169902    1.98196416207238   -0.76201277988986
H           0.65849674734865    1.28975994853905   -1.58821532331681
H          -0.34899644457109    1.94545204962124   -0.33772613917579
H           1.29215461960818    1.60358455885020   -0.03815867036794
H           0.82351045752332    2.92170205655297   -1.06415831949553
