    26
        -50.46885296  Gyration_radius:  2.44088909343 Dipole_moment: 4.315
 S          -0.41636506462282   -1.84439121395419   -0.41332703780250
O           0.98721770012903   -1.41263545462120   -0.43110658020296
O          -0.78192961704042   -2.37409284490033    0.87993607558499
O          -1.29172221233471   -0.80099741188233   -0.90222507804417
O          -0.52717335774697   -3.04382172171999   -1.43502116554429
H          -0.34493986042016   -3.78260564596845   -0.86516286111077
O           0.91368952813504    2.30962607462510    0.30298184648400
H           1.28899248363693    3.18446978047181    0.20005735275865
O          -0.96717962615306    0.67717976936900   -3.09453142819657
H          -1.68140527453289    1.31653379942742   -3.07849450330541
H          -1.16406060362298    0.03597888538652   -2.38251026167566
O          -1.64469448044261    1.20649654182368    0.86836992257005
H          -0.87913291550388    1.76292033856171    0.66729576205181
H          -1.65486980722802    0.51132441136451    0.18568536077730
O          -0.87348274337910   -0.49454758996432    2.76275825344835
H          -1.36858856406574    0.19530869959902    2.26369362974973
H          -0.99083739164037   -1.31002307301353    2.23280236680490
O           1.39555144587702    0.88707819941424   -1.79394622371925
H           1.09448568518565    1.81936361533639   -0.55936813546993
H           1.34745977247027   -0.01204394017727   -1.41857619997156
H           0.65048297821134    0.92957190245933   -2.42513701158378
N           1.41352500549286    0.05433077627629    1.70482876305484
H           1.35668343888318   -0.60000350596778    0.87627158206809
H           1.34438293371283    1.02324681929914    1.32860609279820
H           0.52310240859953   -0.15290239000273    2.29892172825760
H           2.27080814840259   -0.08536480124530    2.22719772021820
