    26
        -50.47168695  Gyration_radius:  2.491082547 Dipole_moment: 3.012
 S           1.52089450575914   -1.62418995684963    0.59365972199152
O           1.45578571709056   -1.06886182500619    1.94126621881314
O           0.17875985262891   -1.76787009424467    0.03460670218044
O           2.41963668842591   -0.91795699423218   -0.28339512407822
O           2.09811292473732   -3.08850934738056    0.75614511658510
H           1.53435092325609   -3.43629573254618    1.43847655920971
O          -2.21376615748110    0.92110146932994   -1.26964523010503
H          -2.87268793409984    1.11627652932182   -1.93608194946111
O           1.75346669019003    1.28256536121991   -1.46956184871551
H           2.55346392975508    1.70398907671970   -1.78646430960586
H           2.04641744452262    0.46291371391902   -0.99525555233929
O          -0.25268148108237    2.35839890117899    0.02258012037494
H          -1.03148914344672    2.02929359742802   -0.46186971677875
H           0.51613054583352    2.08307291641999   -0.51257361448677
O          -2.20449525113995   -0.82576491406872    0.85558959737681
H          -1.45567716891622   -1.36440727100645    0.53340950843496
H          -2.43082185631049   -0.24404981077555    0.10720905538748
O          -0.26062575848455   -0.48075326898397   -2.26533659694687
H           0.47946572472978    0.14348672297927   -2.28142622418516
H          -0.07120631571229   -1.07640264753243   -1.51156165023839
H          -1.51095531408260    0.36730604696233   -1.72054445899939
N          -0.44996712874245    0.70319024603078    2.06932559885454
H          -1.28139171678260    0.12316916629602    1.74193186626039
H          -0.29579993401712    1.45490343783803    1.33368821101541
H          -0.60248998596823    1.10650353984610    2.98653829135536
H           0.37757018933749    0.03889112713873    2.07928972810187
