    26
        -50.47168700  Gyration_radius:  2.49110718433 Dipole_moment: 3.004
 S          -0.36922886902695   -2.18053793919084    0.64150696368114
O           0.54112057464516   -1.65164651646226   -0.37140279993025
O           0.05730837972965   -1.77071906819005    1.97520387899785
O          -1.75146155394897   -1.88931190599246    0.35810523369118
O          -0.21701716131628   -3.75508354656689    0.60298451890595
H           0.67110234166566   -3.86396342968175    0.92492801724011
O           0.91190427905085    1.92835594495077   -1.67647050187565
H           1.08874687324043    2.45584897199881   -2.45550493447105
O          -2.55744170675309    0.45971281828991   -0.36721456836347
H          -3.50903975620931    0.49421032074889   -0.26079544685186
H          -2.28010059592694   -0.43825448304311   -0.05213215016734
O          -0.68057703288582    2.20329118719258    0.55301236919487
H          -0.12761466094724    2.30592707927377   -0.24274691165457
H          -1.43621175527105    1.65373333864966    0.26974733246656
O           2.48659939475257    0.20210740100789   -0.22478733946861
H           2.12696517202839    0.88198569644545   -0.82324511734047
H           1.94015829114317   -0.59024740502333   -0.39270489285933
O          -0.58210052236563   -0.12262146832817   -2.25287440516568
H          -1.43174273540487    0.09541602346191   -1.84264077705272
H           0.35290518562037    1.15419460978479   -1.98014694295999
H          -0.18511675371041   -0.79841008960726   -1.66587523936973
N           0.99465284717525    0.65860871381311    1.88584878123626
H           0.57568737536385   -0.30830755840514    2.01134328138106
H           1.75366000215935    0.55012750684747    1.14619846737552
H           0.26459210089306    1.31444529090004    1.47755427335060
H           1.36225029630178    1.01113850712734    2.76210889000841
