    26
        -50.45156377  Gyration_radius:  2.67101922538 Dipole_moment: 4.835
 S          -0.20761602632537    0.91179836823882   -0.14411364824791
O          -0.67584795615981    2.00313570884645    0.66385868478604
O           1.06925321049366    1.13158694483459   -0.77895626987867
O          -0.14726457584144   -0.35792037740686    0.71733313653381
O          -1.25012065863842    0.54554015454056   -1.19594704441855
O           0.49792639568759   -2.57893629522625   -2.91327471766009
H          -0.11093265555932   -2.68071849607195   -2.13508322818503
H           0.10708708150245   -3.07093373612914   -3.63717007240727
O           2.17972282703837    2.16141722044525    1.43228906736108
H           1.96694267756803    1.83428950825905    0.53986078684696
H           1.60939984396718    2.92162681910815    1.57320267971742
O          -0.95914542122719    1.92490311731471    3.32180126018497
H          -1.87423254872671    1.74103531637025    3.53845132031323
H          -0.93094631385783    2.09030316760068    2.35848704376532
O           0.26789365264719    0.03932403071414   -3.10227227234146
H           0.99595301204199    0.43831827452328   -2.60367546044605
H           0.42910877029573   -0.94180757997074   -3.10047381994327
H          -0.71701897164069    0.31252523418457   -2.06776115982683
O           1.02816337955030    0.22313864631875    2.81405500937362
H           0.33756414499035    0.76431857716757    3.25791871480461
H           0.37963274280205   -0.18094645316915    1.64411419171190
H           1.66617914312186    0.88397403761338    2.44922900629198
N          -1.25153161611691   -2.59304729860549   -0.87363649973312
H          -1.45630814365393   -3.41837633852552   -0.32373855411087
H          -2.13136696065750   -2.19462013428587   -1.17981493491779
H          -0.82249503343965   -1.90992839661622   -0.25468320956269
