    26
        -50.46286137  Gyration_radius:  2.61406416874 Dipole_moment: 3.459
 S          -0.03027276927638   -2.50921218027394    0.41541542054912
O           0.49402319552060   -2.78804473607978   -0.90987248473495
O           0.62781883369608   -1.31884093017382    0.99522765666025
O          -1.45514900786138   -2.40493318282586    0.51814442939855
O           0.43588521706011   -3.72931960061748    1.32233253891846
H           1.31510154435200   -3.90762641698311    1.00231231188851
O           0.68442090732539    2.64458195539791   -0.22244518130090
H           1.24925288418469    3.35685220230936   -0.52328699217418
O           0.29432978675866   -0.73205551088290   -2.46173422652199
H           0.13911365888883   -1.06311241972309   -3.34769160858104
H           0.34554516393208   -1.53795305167038   -1.88062377201711
O          -1.34864863790238    1.15655057926151   -1.39622501015115
H          -0.82556800077427    0.47404232673680   -1.86203750500866
H          -0.72272443415039    1.86427004949884   -1.17052407547588
O          -0.48507080474627    2.44926588658753    2.22748366025202
H          -0.08503466886962    2.66006378631770    1.35885664094496
H           0.24405917340988    2.24497411724595    2.81569991804107
O           1.95989533191693    0.39772181585346   -0.54546001185490
H           1.22484545944812    1.80452839192181   -0.30052440704307
H           1.60133625360255   -0.24876798109870    0.09775912900500
H           1.63857989259855    0.07958157524869   -1.40177678455789
N          -1.48354671694499    0.22944738327801    1.07436261130291
H          -0.62206237310456   -0.38452703718645    1.11595963575227
H          -1.34660989808764    1.05851963859037    1.68935576062849
H          -1.57539462158117    0.56344989240934    0.06770908313190
H          -2.27412537942268   -0.35945655314453    1.32158324292225
