    26
        -50.46836885  Gyration_radius:  2.48079313672 Dipole_moment: 2.820
 S           2.12241596295844   -0.74363340850461   -0.09259819257027
O           1.85861991279044   -1.98855184574480   -0.78360592772548
O           2.01310295285980    0.41920708517154   -0.94355100660045
O           1.33983944831301   -0.58751561976656    1.13426688615720
O           3.62984891247074   -0.82641256778390    0.40222935245180
H           4.06298686403677   -1.15633914199364   -0.37745265484992
O          -2.38114191402135    0.44312477319043    1.30151615801104
H          -3.15950065086976    0.34050164482521    1.84927162512942
O          -1.76303037555183    0.73413705398758   -1.47321618542627
H          -1.34414731316245   -0.13364351123445   -1.60400482607821
H          -2.17276353720206    0.69787695845256   -0.59834485455126
O          -0.59217152183293   -1.77481961225330   -1.58783840382172
H          -0.69350825462054   -2.29823694359100   -2.38462551647477
H           0.36174229162840   -1.84829989627322   -1.33071769511220
O           0.27432340194190    2.41999618891081   -1.12570836924481
H           1.02017771800020    1.80393300559511   -1.26803924410214
H          -0.51577154301889    1.93183706387251   -1.45494423046980
O          -1.06822841175096   -1.78981800506638    1.11733108183815
H          -0.14725811947999   -1.49850364751412    1.26085030484943
H          -1.93681741682027   -0.45624224378176    1.26777420440411
H          -1.10269702083732   -2.01143038918249    0.17292063123436
N           0.03698299242775    1.68455210399197    1.33310114360035
H           0.13422761531667    2.13404894687676    0.34100734996022
H           0.33202784167376    2.31263346617355    2.07133842558690
H          -0.94693518975432    1.37863243461120    1.45958177283481
H           0.63767534451430    0.81296610699753    1.31345817095954
