    26
        -50.46130687  Gyration_radius:  2.4597960451 Dipole_moment: 4.238
 S          -0.72488111144572   -1.95824310398465    0.63566373808696
O           0.47918649998175   -1.85488552056951    1.42863339821455
O          -1.83859109687149   -1.17986738103906    1.12649313909978
O          -0.47386773938597   -1.65127980683378   -0.78242145669340
O          -1.16391305577735   -3.47888898192844    0.68338579389463
H          -0.34120206865217   -3.95732062031266    0.63756430861017
O           0.30670268612741    1.83036707774857    0.73208435212280
H          -0.03562024451390    1.58068624107807    1.62205498093636
O           0.44589241345167    2.25280053794674   -2.09608011263018
H           0.60360646319501    2.42342845157051   -1.15680795325640
H           1.08837066262851    2.77437710074820   -2.57997042670219
O           1.55049981241950   -0.38890692358812   -2.13027600444179
H           0.86274802284029   -0.99599654376348   -1.81405933048219
H           1.11055050764632    0.45716105094515   -2.29949709869416
O          -0.57889997409878    0.45764208816051    2.81536177598479
H           0.17631059749431   -0.09643763559495    3.03349688144534
H          -1.17363354472630   -0.13449971616920    2.31535916000350
O           2.14902779082438    0.03285342079795    0.47008677433805
H           2.18127351784988   -0.16428024159564   -0.48838139882871
H           1.10472859066289    1.22681758882869    0.63351765704687
H           1.67280042756519   -0.71680246436348    0.87457027996771
N          -1.50827761106819    0.72197660416307   -0.75497525859090
H          -1.12877393948608   -0.26589137747734   -0.89086705912488
H          -1.59751029616860    1.21952119226049   -1.63826426408754
H          -2.38968901871727    0.63060040463667   -0.25477934279815
H          -0.77683828177460    1.23506856833559   -0.12189249342149
