    26
        -50.46058396  Gyration_radius:  2.53721787856 Dipole_moment: 6.710
 S           0.32030662487584    1.01957935904177    1.93351000264960
O           0.32715822554671    2.34151113855039    1.34778352734640
O          -0.74312636786762    0.16481275809252    1.43857012760951
O           1.62359973810398    0.36414694299822    1.81981873427192
O           0.05082261398310    1.22384458729287    3.48021201454608
H           0.53450842948002    2.02802667407789    3.63419743046688
O           0.25811763133823    0.25935743679825   -2.13957213025870
H           0.38931343677007    0.50822982502319   -3.05514127054708
O           0.87774983096475   -3.22112659011954   -0.38162507150434
H           0.00466235871327   -2.74886307811462   -0.37400057271898
H           0.81736474037553   -3.89310411738874   -1.06149073035307
O          -2.93498648957547    0.98181014987250    0.12791646673420
H          -2.24269279979880    0.74956899189869    0.77671037649281
H          -3.20195115792479    0.14847081606380   -0.26786387429342
O          -1.17114802114757   -1.57818707083250   -0.56241128113852
H          -0.84868262850426   -0.99541791652587   -1.26636456648995
H          -1.07272433079639   -1.05436572875654    0.25555979181289
O          -0.84206582950530    2.26633181410165   -1.02335623640966
H          -0.17078240727141    1.07317300007973   -1.69729132376824
H          -1.73204830838963    1.96742570516243   -0.74747373982036
H          -0.37076618200234    2.42517179582053   -0.17739235541949
N           2.04436312619581   -0.80966602473525   -0.42584695456026
H           1.87189952843033   -0.33971409792039    0.53343226945219
H           1.44030866775918   -0.33291854513070   -1.13545398913114
H           3.02676807738389   -0.73506513848189   -0.66644088992945
H           1.74403149287452   -1.81303269687101   -0.36598574502066
