    26
        -50.45156364  Gyration_radius:  2.67146271518 Dipole_moment: 4.836
 S           0.16941594495104   -0.18280787190947    0.90970225684071
O          -0.51226826443203    1.02496651090276    1.30761795173936
O           1.65655343295825    0.10172811238464    0.72422261714891
O          -0.01862015572863   -1.30096706517249    1.79153975783734
O          -0.26918704695075   -0.58383706181052   -0.50628107805728
O          -1.33080084649278   -3.54368956578807    1.15941121279129
H          -0.70120054542905   -4.21749426987200    0.89914660791120
H          -0.80711948564378   -2.80036976499690    1.51924421959377
O          -2.78802028399246   -0.25866603145981    1.90575422878774
H          -2.06769074757355    0.38058046086610    1.76032528807961
H          -2.47604152762114   -0.84879454091468    2.59672234474366
O           1.52833387380901    3.07836303352531   -1.89833734372955
H           1.57394566974429    2.12798905480069   -2.18373467605960
H           2.31162867853375    3.50931737907737   -2.24424215123839
O          -2.49085635538392   -1.65481304335114   -0.32064326926774
H          -2.23870711064107   -2.51216878240397    0.08935015904870
H          -2.85294082040457   -1.11844139276114    0.42628552459936
H          -1.24936253576035   -1.03761077135974   -0.50181225016510
O           1.58654658082267    2.58911752395036    0.69010129295919
H           1.75465821903855    1.14528628315865    0.70063587010041
H           1.54420703345336    2.87118173863950   -0.26249101688684
H           0.67197452180374    2.54903865117651    1.00602682510264
N           1.75028962657779    0.44871163758754   -2.40393932584708
H           1.67505791122110    0.05207083462335   -3.33257969886417
H           0.97894330173028    0.08440139998653   -1.85071755282770
H           2.60126093140370    0.09690756100714   -1.98130778441365
