    26
        -50.45689052  Gyration_radius:  2.60217734911 Dipole_moment: 5.420
 S           0.46931530801524    1.83297114446144    1.00517366319868
O          -0.70175644593750    2.33454515228652    0.28949501636781
O           0.13163997313414    0.68582259827501    1.82194751644172
O           1.59469579448901    1.58988436573568    0.11925830839575
O           0.92753914628129    2.99499705237076    1.97866546907917
H           0.13876148004861    3.16172085672976    2.48452375950548
O          -1.20024001745451   -1.73197335366737    0.92618285292066
H          -1.38786562840798   -1.12267918327135    1.64802990584241
O           2.95901368745259   -0.73401401197817   -0.35349926578124
H           2.67611187228850    0.14855871507933   -0.05960559554813
H           2.67706216651245   -0.79975028462564   -1.26965126897210
O           1.08315425926379    0.68428964799335   -2.29406075401150
H           1.33399177398120    1.08547226109713   -1.42684430156696
H           1.16363640852391    1.38538765778398   -2.94223455037364
O          -3.29199514012660   -1.67754854953765   -1.02840114332844
H          -3.98892112226560   -2.32715236612346   -1.12510628811963
H          -2.72533966417262   -1.98088049399833   -0.30486925964478
O           1.31737328091454   -1.75765046578256    1.56326475538665
H          -0.24707692309470   -1.97372414278902    1.08920441519567
H           2.00630337919858   -1.61664695417509    0.88772165414923
H           1.08818717468569   -0.86308270944787    1.86970338145084
N          -1.21476673428458    0.13626451596242   -0.99524640899889
H          -2.11955796412141   -0.04525509737222   -1.43361961850404
H          -1.07904961234920   -0.62237263840925   -0.27235376363424
H          -0.43666715785178    0.14185218574629   -1.68450452121175
H          -1.17354928473965    1.07096408763964   -0.49317395823431
