    26
        -50.46263513  Gyration_radius:  2.56848195294 Dipole_moment: 3.564
 S           1.20799961939917   -2.03838680615681   -0.05838373899010
O           0.68090287739167   -2.53097540105461   -1.30768860989890
O           2.33383710208177   -1.14041214554517   -0.20127244369586
O           0.18391973044617   -1.45797931280497    0.81972909701051
O           1.72213346989434   -3.31619569462943    0.73912931286182
H           2.14204847848854   -3.82638432921117    0.05424616534203
O           1.56017765374169    1.13677085505412   -1.31593853883496
H           2.10358638159134    0.34198021425905   -1.14819465826168
O          -2.27899378562317   -0.98193587621494    0.00463205342982
H          -2.89136890947648   -1.54075020672079    0.48419731043711
H          -1.37718579598783   -1.22283320106452    0.31862247708108
O          -2.07424252061276    1.70860514458144   -0.32670469625166
H          -1.50291841839348    1.68182596432383   -1.09965940769257
H          -2.29157903059107    0.77663258133525   -0.13562880074254
O          -0.96473634829224    2.69148450256313    1.86685979901115
H          -1.49978019405672    2.37613063466831    1.09815396717571
H          -0.89625825228033    3.64261776401923    1.77331185456531
O          -0.54551773276705   -0.32842838895926   -2.13488230488946
H           0.76997851170357    0.78034575474816   -1.76856256256790
H          -0.05895451571079   -1.16819929740484   -2.01518099420944
H          -1.40536159784789   -0.50552172121982   -1.73513235721424
N           1.01810035326860    1.00027645435834    1.24397038257886
H           0.65468901130226    0.00984016376031    1.21332236642232
H           1.24008639643343    1.22949827290188    0.22109223521940
H           0.29657918372856    1.66115667455785    1.62019161707364
H           1.87285834213299    1.02083740987209    1.78977050506819
