    26
        -50.46303823  Gyration_radius:  2.72433061508 Dipole_moment: 3.411
 S           1.71174134265603   -1.79820776890396    0.43892583083334
O           2.43925423754155   -1.45313172091486   -0.76831203374866
O           1.63530301547167   -0.67131822161286    1.37258733684328
O           0.40616500843019   -2.37399342857504    0.20002828655264
O           2.56795768283755   -2.92288033699277    1.16391050731756
H           3.47027621905175   -2.62490558558435    1.08988132178437
O          -0.53111437223087    0.83367613314093   -1.36193200075791
H           0.39930336302473    1.13289649185378   -1.21512575663905
O          -2.50590013489027    1.70362644718797    2.07623524940497
H          -2.20825158747835    2.41264125079090    2.64785380105069
H          -2.59929308906707    2.09360352271059    1.17994619995537
O          -2.46559352058782    2.56769705620248   -0.47794757420334
H          -1.75446403900929    2.05806764924746   -0.90679388834596
H          -3.21676058778287    2.53490920131647   -1.07195600961591
O           2.00966188820507    1.15994567324041   -0.70027382395723
H           2.28795742619672    0.23762000557419   -0.87911120841208
H           2.06106167620847    1.22707845222645    0.25804937133350
O           0.07830378014842   -1.55282068695612   -2.30998598843722
H          -0.43569975856586    0.00171805909452   -1.88832835354454
H           1.01309199430615   -1.49803533189546   -2.53324299710430
H           0.07638613575939   -2.01050966254314   -1.44566649411225
N          -0.90914760802360   -0.20883721433079    1.05204459119763
H          -1.50114167770618    0.40951732313584    1.64800198449987
H           0.09340207033642   -0.30623561877319    1.37507925324307
H          -1.26749175296078   -1.16007959523895    0.98189698724674
H          -0.85500772189058    0.20795787662687    0.07423541761331
