    26
        -50.44849473  Gyration_radius:  2.48593428582 Dipole_moment: 4.243
 S           0.46107699976342   -0.50401873549658   -1.84695083398890
O           0.38583035921575    0.23243554046791   -3.07547814634491
O           1.25878651240594    0.09919468057487   -0.79796223138032
O          -0.86997816499613   -0.87760429455553   -1.33363851392940
O           1.18012078748545   -1.88020480276812   -2.19378535876172
H           1.03532568158003   -1.95638451429407   -3.13125315256762
O          -0.40911670185684    0.97865535916004    2.17071160791335
H          -1.05035625353831    1.46330867817358    2.69198399994206
O           0.65842687024227   -2.71567191809223    1.85595205866832
H           0.67460876073083   -3.03535258524152    2.75945373185529
O           2.02976935274575   -0.51186217192744    1.68310243469471
H           1.93720209260147   -0.32193722538996    0.72886291348961
H           1.47367170694117    0.14453322324000    2.12033643342845
H           1.33243568187979   -1.98136175340232    1.79555365230314
O          -1.21669925677972   -1.18452420932953    1.06873139983262
H          -0.92365206313897   -0.30679652366567    1.50947433044005
H          -1.06892792382768   -1.06134776271578   -0.00703036414138
H          -0.53765711900130   -1.89242455738688    1.36641525202059
O           0.22409810588223    2.37704643349993    0.13913671980131
H           0.82484249455010    1.71622160423628   -0.25097819752561
H          -0.52526015990718    2.40284633703195   -0.50600751383313
H          -0.15663543027827    1.58882402795952    1.39126777388588
N          -1.56523867215576    1.92864282419247   -1.80654257190658
H          -2.25005534613983    1.22372148325964   -1.56012909522172
H          -0.87441308779353    1.45413411902163   -2.38638573875742
H          -2.02820522661989    2.61992675344963   -2.38484057991830
