    26
        -50.44772976  Gyration_radius:  2.51294226596 Dipole_moment: 2.774
 S           0.76600200506692   -1.69231899512043   -1.00742875045276
O           2.10067384343804   -1.20943326147665   -0.61221952730471
O           0.21716474651064   -2.60329341906837   -0.03136340216911
O          -0.11792737723194   -0.60458085741917   -1.36068636127021
O           1.00897317392259   -2.52596707420612   -2.32883190023593
H           1.52321050114414   -3.25041457903018   -1.98903042917129
O           1.99753111610232    2.71206109754101   -0.52807571237218
H           2.04717857556434    3.58913882520413   -0.14498563709559
O          -0.11691355322003    0.84431646499554    1.98738221220610
H          -0.13510937815151    0.97945427560423    2.93609611946298
O           2.21764107642234    0.65771986596165    0.96472249710876
H           1.29651687337523    0.69360031837739    1.41328203603910
H           2.19851603192413   -0.19097002212757    0.27985104439852
H           2.26451132474498    1.48678324587292    0.36215010549262
O          -1.42482083547529   -1.27497550169668    1.56961667690883
H          -2.11903218895935   -1.02618854307233    0.91386510981107
H          -0.82779801371695   -1.87254315978041    1.07173298752545
H          -0.65055426033943   -0.02344858446901    1.82360222790792
O          -0.49073325406278    1.93567607329078   -0.58504395640289
H          -0.40250430737960    1.06335470863924   -1.01496826161556
H          -0.63535330762963    1.73245030864138    0.34953801179615
H           1.03220575607767    2.52377952508964   -0.69894546313021
N          -2.90628651850975   -0.54264198216052   -0.57478349196304
H          -3.25539317102279    0.39791686056986   -0.71130048447489
H          -3.56304808224107   -1.18198572804088   -1.00368059230257
H          -2.02465077733959   -0.61748985312703   -1.08049504723243
