    26
        -50.44849475  Gyration_radius:  2.48578792039 Dipole_moment: 4.241
 S          -0.30311738948046   -0.75056251389870   -1.79468399399754
O          -1.18140845669376   -1.78865283674487   -2.25092288091472
O          -0.93834576653775    0.35505502097051   -1.10585054977682
O           0.82268547447743   -1.27621649434172   -1.00021043136697
O           0.35887333376006   -0.12008668558881   -3.09671472204518
H           0.25534082549660   -0.81631155934935   -3.73721127072690
O           2.35360142829349    2.35452356940650   -0.40590076822862
H           2.83919740227221    3.03502335592841    0.06302897475387
O          -0.02761771377359    0.88250272093195    2.24918661087812
H           0.04285130901146    0.64489798748550    3.17460063962408
O           1.87167880985744    0.11958679190622    0.71329578249479
H           1.11764883282099    0.39985162203851    1.34801204225673
H           1.41721655206198   -0.50768249906064   -0.05831336699736
H           2.17464086904358    0.97526700450521    0.23681284417140
O          -0.19863663684430    2.67843361209429   -0.02079857035183
H          -0.55187339632276    1.94192585318847   -0.55747411988759
H          -0.33362348555358    2.40359467712198    0.89436478232175
H           1.39017541682224    2.61595068257282   -0.38138377425383
O          -2.02028118919768   -0.33809034228766    1.23675402954222
H          -1.81959735909627   -1.30196784327626    1.14159239965363
H          -0.85688302206910    0.40294699197729    1.89484315942312
H          -1.89308415725785    0.00132995564431    0.33217233663378
N          -1.22977713265124   -2.77756695420237    0.45375540377253
H          -1.70322065149989   -3.65780588793367    0.61996931908661
H          -0.23668778352332   -2.93215685333852    0.58195479650316
H          -1.34975609340886   -2.54378935574161   -0.53087870256802
