    26
        -50.44842475  Gyration_radius:  2.48744854682 Dipole_moment: 3.797
 S           0.79892822287141   -1.45235379546860   -1.04989503910703
O           0.89388118697177   -1.16708484193056    0.37338797472356
O           0.31705964593636   -2.76662668791423   -1.36438021786141
O           0.07559268214713   -0.37864443402991   -1.74211048285050
O           2.28485215781858   -1.37829830551642   -1.61673115864102
H           2.48698482122519   -2.29462886302760   -1.77413817336541
O           2.28373435383295    2.47317789444697    0.00393458578536
H           2.46027148936344    3.34713999184227    0.35584133995186
O          -1.15783968399719    1.53525489016135    1.47269000505471
H          -1.99768822714970    1.97251762013426    1.61841769682501
O           1.63375942027861    0.86048244534410    1.93656258939003
H           0.74588707488384    1.13607585041781    2.19426158848532
H           1.50384909909264    0.03052010621895    1.43541229689055
H           2.21303110608561    1.85361379062416    0.78417994498110
O          -1.53478245246391   -0.97917444024888    1.44833960897372
H          -2.03752130775207   -1.26514989124908    0.64566735282027
H          -0.61529801829067   -1.22497030012908    1.23202392574781
H          -1.35069917582411    0.53095102888464    1.50539052412167
O          -0.05370016556789    1.88202959853977   -0.80234771958415
H           0.90804457149555    2.16945747712739   -0.58585194569901
H           0.01729288629886    0.89444635556966   -1.23989425200610
H          -0.52699322863641    1.76060744769448    0.10172355735701
N          -2.36081381998071   -1.78979484906725   -0.96842599547311
H          -1.49538938543677   -2.30469498064458   -1.12522157535543
H          -2.36067607684472   -1.03697845048383   -1.64651713942299
H          -3.13176718634744   -2.40787466729470   -1.19231930173417
