    26
        -50.45156372  Gyration_radius:  2.67138145174 Dipole_moment: 4.839
 S           0.11309629658133    0.65189213039345   -0.67294897891281
O           0.58903085993513   -0.54129351138952    0.16844211745236
O           1.18561932673776    1.07828439461408   -1.52786858191477
O          -1.01354963617148    0.04130629270082   -1.50045752831928
O          -0.41772884766934    1.67754832514391    0.19195943523627
O           2.00865719954709    2.57980755283870    0.88723171784672
H           1.05754687377052    2.41526011136020    0.75709838520945
H           2.34655426527891    2.84419863270626    0.02760412211817
O          -3.51344396956400   -1.09831946956156    1.36409273708461
H          -4.35028645540337   -1.53224720524718    1.19006386977277
H          -2.80152285157768   -1.69870763151200    1.01858119627907
O           3.71351913617798    0.22336651088674   -1.35163452003522
H           3.85806746153226   -0.47509780102023   -1.99146411980396
H           2.83425628977312    0.60239986800260   -1.55012493335461
O          -2.96439428830945    0.92447016272320   -0.23261990953725
H          -2.36407030355896    1.52103362043744    0.23811762991232
H          -1.90865454631232    0.35625020330648   -1.05478406879139
H          -3.23553123243732    0.22425044595917    0.41926236832250
O           2.78138722656014    0.06338412766887    1.14048764881089
H           3.34836294327185    0.01404068301517    0.33876401270095
H           2.62366621264007    1.02974860346112    1.27483513314401
H           1.53552398179113   -0.33417779419449    0.64606733203904
N          -1.57937609883167   -2.55229007799738    0.19558047713668
H          -1.28657971197099   -3.46118948682085    0.53259008358256
H          -0.78765620930000   -1.92092041213511    0.28684355591474
H          -1.77249391249269   -2.63299824533385   -0.79571917193583
