    26
        -50.44849472  Gyration_radius:  2.48582715027 Dipole_moment: 4.237
 S           0.66136045616000   -1.38176290095314   -1.23621124214287
O           0.66077088224912   -2.81298999435465   -1.14409877312461
O          -0.63449655957220   -0.74220874777920   -1.12733238743776
O           1.62416356642607   -0.76021410005304   -0.30774602018305
O           1.19272128343354   -1.02700040570575   -2.69318665662645
H           1.67055406255101   -1.81361331990948   -2.93472887620037
O           0.67620789040822    2.92559779998651   -1.49472971321182
H           0.55951848101474    3.87266851329453   -1.40404157172242
O          -1.11659417694743    1.44218918254954    1.58450763997485
H          -1.18117871371583    1.66761488692582    2.51338512777487
O           1.21992726155178    1.49767191109739    0.54190365374103
H           1.41536666111817    0.49216969535632    0.15800966318390
H           1.11839253691082    2.09837624509193   -0.28226213111357
H           0.29801117187161    1.46933410062926    0.98808133568317
O          -1.74776967023569   -1.00723240353802    1.28763043151070
H          -1.41291319065879    0.46784212775724    1.50719708372947
H          -1.58787508207818   -1.03324300879281    0.32675847390607
H          -1.03420001326186   -1.59082573447586    1.64639394717630
O          -1.62378151662369    1.73361663387363   -1.25490023207329
H          -1.35218083749008    0.80357939700131   -1.38303981221040
H          -1.82666229071444    1.80388705428148   -0.31404054963623
H          -0.23576883957166    2.52715630582474   -1.57585610161624
N           0.42831888074618   -2.51505280532457    1.71114484906777
H           0.49065371663729   -3.35544932576151    2.27368992919970
H           1.26354184288887   -1.96726116792367    1.88119694313604
H           0.47391221689617   -2.79484991911698    0.73227498921710
