    26
        -50.44842429  Gyration_radius:  2.4874420916 Dipole_moment: 3.796
 S          -0.70876917182335    0.25481036652803   -1.81090833614246
O           0.65492319429147    0.00795928737865   -1.36862040399103
O          -1.20315400178522   -0.68628933002520   -2.77440097525087
O          -1.59790895687931    0.43875901083413   -0.65736002637430
O          -0.68818417840187    1.66846625060365   -2.54287819273967
H          -0.77338861658586    1.42346094646368   -3.45815955361221
O           0.89174202375043    3.06847469038966    1.05992184369913
H           1.30051751368651    3.53316588797647    1.79187828597230
O           0.97040020290393   -0.63836250123149    2.12572374099816
H           0.80415100851233   -1.13907355846324    2.92539048533803
O           2.41789223146666    1.10548982738281    0.30101688836172
H           2.33531115453929    0.44884977980923    1.00293559385697
H           1.88869167260989    0.74890814358969   -0.44042944959544
H           1.57904841379465    2.44529403624208    0.69000400707279
O          -0.73021966447675    1.16511892042657    1.51758665576952
H          -0.16916314092679    2.00821851764544    1.34772458380655
H          -1.12925174177500    0.86871446024841    0.55605883321112
H          -0.06674068951102    0.42915109633480    1.79019746127047
O           0.76140932705431   -2.19356930208321    0.12503720377208
H           0.89485513179948   -1.51000778968168   -0.55874622925889
H           0.91055462860403   -1.30733901213371    1.35380897631684
H          -0.17480982322022   -2.47757285285305   -0.02220198469904
N          -1.80298901269225   -2.47342564599166   -0.59991075419586
H          -2.42024203820129   -1.87497603784838   -0.06385334141173
H          -2.30534698458252   -3.32790329432833   -0.80977818027076
H          -1.63932846216508   -1.98632190720902   -1.48003713191302
