    26
        -50.44849475  Gyration_radius:  2.4856616855 Dipole_moment: 4.241
 S           1.50091419826874   -1.23407708932501   -0.31496413237871
O           2.10190031018717   -1.70651058111669   -1.52847160586991
O           1.47048021150131    0.20486966378544   -0.14488220182453
O           0.16172926140461   -1.80923438446760   -0.09029932289535
O           2.40107791382388   -1.78669277359275    0.87488879501829
H           2.84451163308499   -2.52510016412368    0.47034529848048
O          -1.69426218757293    1.72134930877580    0.07513474904662
H          -2.55929684809849    1.96958791803552   -0.25335906946033
O          -0.32339729600497    0.17285181320387    3.33360010453003
H          -0.81356023237013    0.61259048875155    4.03012204599610
O          -1.50304940075337   -0.56757136341116    1.20272993134676
H          -0.76211402232029   -1.13535928260368    0.63397782571805
H          -1.06967570867275   -0.37063829137688    2.11061145215201
H          -1.60450505933788    0.33805349071766    0.73385118276873
O           0.68441533052167    1.94595936120093    1.71873151939057
H          -0.07791279073277    2.27489816899929    1.22690042878445
H           0.18849104484522    0.87939812860200    2.84794527895167
H           1.15461012274584    1.36322482912188    1.09058427867447
O          -0.11179390992901    1.44942897593040   -1.90153997974653
H           0.65872789497596    1.17407487746712   -1.37225796348074
H          -0.33511472567624    0.63043408552984   -2.40919282423551
H          -1.08613051736558    1.66030821332824   -0.74326850611351
N          -0.35975758680310   -1.03947115248903   -2.86751412945026
H          -0.99300610467139   -1.61334142724741   -2.32318296832749
H           0.57834920820880   -1.29479913358788   -2.56204732006628
H          -0.45163072926166   -1.31423366010728   -3.83844284700477
