    26
        -50.44842219  Gyration_radius:  2.48743650274 Dipole_moment: 3.793
 S           1.34495042704738   -1.21368569202683   -0.75507012459021
O           0.93582979257845   -1.01997492759296    0.62772039169339
O           1.23937357239225   -2.56569823057081   -1.22316251457952
O           0.68759969433065   -0.23397351863059   -1.62817171869224
O           2.89202573043422   -0.84274553915868   -0.81540373285174
H           3.30298589672883   -1.69858320027108   -0.87907139061751
O           1.66055432573872    2.82668900246406    0.76855413289808
H           1.55033768236191    3.69018511072605    1.16986859424689
O          -1.82751224117112    1.20107978226709    1.03952074547239
H          -2.73707705989752    1.47364069883244    0.91240978823646
O           0.75161876263982    0.98971620761212    2.36765606927685
H           1.46615551141585    2.14928336670476    1.47640109226792
H          -0.20736036065481    1.08768445281128    2.32984378545142
H           0.94333408983217    0.18762720013104    1.84150235991650
O          -1.69759648838592   -1.33165563483080    0.86276998020608
H          -1.82824126934170    0.17866702578856    0.99525574319615
H          -1.86025996180130   -1.64207792842416   -0.06252724267540
H          -0.72778088435672   -1.39841339955493    0.95102810497644
O          -0.15099463836487    1.89782793342586   -0.75396210447515
H          -0.85284991158318    1.63151867921332   -0.05180260301665
H           0.62232372614175    2.33180854054578   -0.23610850539388
H           0.23741128496123    0.97183978378312   -1.15677215857810
N          -1.55895810183686   -2.09738195584017   -1.70097440759804
H          -1.48634922134518   -1.30910358590562   -2.33331652325002
H          -2.09144648064491   -2.82145438908619   -2.16858900124522
H          -0.60807388720952   -2.44281979242395   -1.57759875027781
