    26
        -50.44246359  Gyration_radius:  2.62800307402 Dipole_moment: 4.235
 S           1.18637086590206   -1.67658947916678   -1.65845957131864
O           0.05517960833981   -0.98429403011692   -2.30604439942279
O           2.43435975843884   -0.99118828610216   -1.89389454820988
O           0.89306080776263   -1.96849613300302   -0.27826220094580
O           1.30111330496406   -3.07759480331631   -2.40309111275379
H           1.73794604291826   -2.84970793337594   -3.21834799507228
O          -0.34921681528343    2.40485418169971   -1.07935016993619
H          -0.20458791107276    2.60540109355272   -2.00573379072477
O          -0.23865609857985    0.03954355233060    1.55405056724042
H          -0.76391584187523    0.74133692451598    2.00077641029310
O           1.68754054800713    0.98594679586310   -0.27359804373500
H           2.06310980247050    0.32033385746261   -0.88316490953471
H           0.50210086516334    1.99013621010700   -0.75883906233966
H           1.33762767955630    0.49222172313129    0.48085714668143
O          -0.35459610978749   -2.56715682973020    2.00805606160328
H           0.02555505836414   -2.51243054904223    1.10893282855397
H           0.31455861136752   -3.00115927751930    2.54003689253048
H          -0.38324951810306   -0.84012745668275    1.96249050432851
O          -1.40848216435043    0.10417022992271   -0.67569753817429
H          -0.82565676988635   -0.45447955875407   -1.39771748849461
H          -0.93537495975863   -0.04275687210495    0.24802851488810
H          -1.16773985902315    1.06854801851234   -0.88884556147966
N          -1.62221227424203    2.30354841663153    1.99848326275797
H          -1.38407496639790    2.93485015698050    2.75304463390157
H          -2.63178417152286    2.26753744823458    1.92932509120406
H          -1.26897549336335    2.70755257997416    1.13696446815146
