    26
        -50.44246363  Gyration_radius:  2.62796813824 Dipole_moment: 4.235
 S           2.24964143326645   -0.56866850031795   -1.25869145533778
O           2.12635089412085    0.26655479989079   -2.42911232350327
O           2.49698204828992    0.23143389115843   -0.04339358235112
O           1.17400693800869   -1.50492268962469   -1.05222587485781
O           3.56883748281969   -1.43306335908321   -1.46610922381334
H           4.17696311821567   -0.80496235941907   -1.84441302393684
O          -0.18772591305240    2.58131866774746    0.60897742116280
H           0.53225940655578    3.20866240602428    0.52295020005698
O          -1.38576350167100   -0.72247563215157    0.17430763830836
H          -2.10945582680027   -0.37035796473003    0.74017846730881
O           0.55220325258537    0.27060134846159    1.44027554378090
H          -0.19359904180901   -0.24730689099631    0.91664776075525
H           1.45006568671405    0.17979289083661    0.84141924842049
H           0.28169367870197    1.23990097083325    1.29592470669273
O          -0.55034239572647   -3.23202927468793    0.03696753943489
H          -1.32822662672729   -1.70023672003436    0.22189815130414
H          -0.81603608068006   -3.79705654918579   -0.69054903935767
H           0.21386278620756   -2.72218031333922   -0.29769297861023
O          -0.23378660713893    1.15994905289466   -1.57911181830407
H           0.61671534901184    0.90167042952072   -1.98616102059179
H          -0.66262257895639    0.33677310309490   -1.30724068627566
H          -0.27699501390377    2.15106265773005   -0.28904133781465
N          -2.84448363070448    0.91450959472923    1.73299110817063
H          -2.27806834205873    1.70972346867143    1.45539804324311
H          -2.76374677012087    0.81594954810802    2.73752236954172
H          -3.80872974515113    1.13535741387119    1.51828416656771
