    26
        -50.44721209  Gyration_radius:  2.51042452077 Dipole_moment: 3.930
 S           0.56611689665123   -2.02393263389912   -0.32024816263641
O          -0.35518752318293   -1.25699007879895   -1.14499722694865
O           1.92214964793421   -1.45038667061268   -0.39820210639326
O           0.11197998783463   -2.21650282418222    1.02694002198790
O           0.70063652502952   -3.44514619602276   -0.99556524827505
H           1.13718099107211   -3.21627763111827   -1.80918406978911
O           2.20170334497835    2.13461892549846   -1.46455709845331
H           2.23553200228052    3.09155009774923   -1.42290768893183
O           0.06257021420835    1.54154544076050    1.52974417358508
H           0.11437630392907    2.08923216798340    2.31452285442004
O           2.32012996861365    0.72292000422753    0.65383436964497
H           2.17562949338899   -0.27588637712226    0.24157425167292
H           2.42636199824701    1.30837885773461   -0.18168218628776
H           1.42717855239839    1.00828653036632    1.06984829323925
O          -1.47992719387764   -0.37528328373072    2.08917969975796
H          -2.17190700674548   -0.36479923660437    1.38272212559889
H          -0.92344416406696   -1.14768044385113    1.86200611921906
H          -0.57113036928197    0.76486916814431    1.77863396906206
O          -0.29420229168664    1.40647340868226   -1.27160027006166
H          -0.33548079603755    0.42999933520836   -1.34060682048768
H          -0.44724753531887    1.60061727566357   -0.33686710095792
H           1.24175039639276    1.88501402954319   -1.57542680841710
N          -2.96406362329167   -0.49077295709657   -0.15750588906953
H          -3.25520312436175    0.32974957650710   -0.67445192123941
H          -3.70312112649744   -1.17848789988408   -0.22811147371258
H          -2.14238157195782   -0.87110862365291   -0.62709180776865
