    26
        -50.44246360  Gyration_radius:  2.62794653448 Dipole_moment: 4.235
 S          -2.33706260810340   -0.72709860243957    0.98894911653550
O          -2.83286473711535   -1.56932812755787   -0.07290608360366
O          -1.22069960578440   -1.36554431736185    1.71306346622624
O          -2.00087879992242    0.61977731756986    0.60276339347099
O          -3.51450291666590   -0.61275219216987    2.05243981194190
H          -3.86445678024382   -1.49837357525732    2.07775934948119
O           1.58543980730470   -2.08197509469391   -0.47048638709319
H           1.40009438274329   -2.97648858251657   -0.17920522568197
O           0.55571750729106    1.29922406143965   -0.69063614801834
H           1.49729708620980    1.40844505206178   -0.95411999109071
O          -0.62149647203866   -1.13391588589381   -1.49068989051168
H          -0.52217901314059   -0.17618427816203   -1.39961791627205
H           0.77665164684622   -1.79406285167435   -0.98280460493483
H          -1.46982697792799   -1.36112910487434   -1.06121565614500
O           0.92090490008480   -0.28427107662467    1.23377939311028
H           0.69875271951974    0.43847660110573    0.50776556210422
H          -0.03113392574641   -0.70737073930799    1.52967471922649
H           1.33481075598674   -1.02734916605027    0.67686001311661
O          -0.97381295438468    3.08594319579302    0.52692287574705
H           0.17393093752739    2.13415184388198   -0.34605006939109
H          -1.61612152110029    3.59827312160345    0.03286227077891
H          -1.41765486341290    2.23768011831532    0.72553429162567
N           3.14044461878225    0.76882316168271   -1.21512429769264
H           2.95469328778131   -0.22897486137972   -1.20358911418728
H           3.82357232358546    0.96222268183279   -0.49313879424267
H           3.56038120191784    0.99180130067218   -2.10879007449758
