    26
        -50.44246351  Gyration_radius:  2.62789397368 Dipole_moment: 4.234
 S           2.56108781025655   -0.52335871592516    0.36868382543156
O           2.68379343238936   -1.78880877006277   -0.31416828265587
O           2.36653695546414    0.59003640323987   -0.58033061586207
O           1.57911728935682   -0.48294801618708    1.42241029117650
O           3.97096274361853   -0.24892734295787    1.05245994603835
H           4.58890163875573   -0.53942191351911    0.38826541112725
O          -1.29251114269152   -0.10256311832522    0.89153218899846
H          -2.18000124462352    0.19617182891730    0.58976897147047
O          -0.63218316013409    0.16895397020201   -2.57708231712097
H           0.00993252557512    0.19081234857747   -3.28879483437128
O           0.08984266353994    1.48163908478015   -0.49539861568738
H          -0.41718954191719    0.85576968992570    0.17556393272675
H           1.12436093626504    1.16244681124628   -0.47189765998231
H          -0.23254641984852    1.13659275188304   -1.39571527209528
O          -0.18217911827958    0.34377188209823    3.25408649416924
H           0.58458528404822    0.15470478277699    2.67758637371877
H          -1.14379858717969    0.09594924409560    1.84027031105063
H          -0.16845658282478   -0.33972276602589    3.92621006527301
O           0.09692516939558   -1.73107352152784   -0.94328123130716
H           1.05060284115386   -1.85667126100786   -0.76872703464064
H          -0.29884290604927   -1.47165265483872   -0.09979077799796
H          -0.41697842432084   -0.65099571043102   -2.04716661156160
N          -3.29917046499960    0.77033089245951   -0.67329176919296
H          -2.76819483471543    0.54276489715397   -1.50787294758833
H          -3.49068698125371    1.76442449671637   -0.69304575392399
H          -4.18390990098847    0.28177466673396   -0.73027404720510
