    26
        -50.44246372  Gyration_radius:  2.62776410847 Dipole_moment: 4.229
 S           2.02397733774899   -0.16463057523357   -1.68669538941582
O           3.09143530770494   -0.55105399335021   -0.79550345890312
O           1.05974915755843   -1.26337359937860   -1.88919335698324
O           1.34771252705527    1.06110944866287   -1.34516547305402
O           2.69623374648057    0.06942496382327   -3.10929998650726
H           3.32624268509635   -0.64284120774353   -3.16542000742238
O          -0.47936949781992   -2.30898291169301    1.22560247315898
H          -0.07300265443624   -3.14238665761408    0.98135049820413
O          -0.76123697235685    1.18214081962725    0.70742939423119
H          -1.54897801313446    1.04768796060265    1.28127567742653
O           1.41649096960219   -0.51671920938290    1.27372594561592
H           0.27924057426824   -1.67558051253790    1.37749770296181
H           2.11603290989317   -0.55956060775804    0.59207852604638
H           0.94798648916065    0.31633958645654    1.12578787125085
O          -1.07653536608443   -0.82587849155761   -0.77979918020422
H          -0.17347646788779   -0.98571621108429   -1.35562636506277
H          -0.99649299884751   -1.51576394756480   -0.03742938980772
H          -0.92954782131280    0.07381455070798   -0.26184834863376
O          -0.45083126210501    3.02960408683914   -1.16471294187355
H           0.19544517385231    2.34108026876384   -1.41837320727848
H          -0.84070489195923    1.99363132815987    0.16279877277230
H           0.07015339999762    3.81703456090136   -0.99844022035957
N          -2.67507056829508    0.00197395494423    2.18462402544295
H          -2.14609652046962   -0.86399881858205    2.20654671593849
H          -3.56654016677863   -0.19393631855413    1.74624389726421
H          -2.85281708692923    0.27658153254744    3.14254581515326
