    26
        -50.44246362  Gyration_radius:  2.62801728108 Dipole_moment: 4.233
 S           0.04303964383713   -2.45449252414469   -0.97087493041609
O          -0.55979377882742   -2.41552968342936    0.37571513290599
O          -0.95887080352584   -2.35688591868788   -2.00498858181142
O           1.13342183741107   -1.51857034345978   -1.07724773389270
O           0.67837324996781   -3.90686306708103   -1.10301647729412
H          -0.07947898043323   -4.45444402805597   -1.28532498923107
O           0.91664260971458    1.26880321779483   -0.15262272703360
H           0.76554367162800    2.10531256706380    0.34270974106539
O          -2.38984626871331    0.66067797675721    0.96020653207416
H          -3.11111672970280    0.04089280466058    1.08249860556341
O          -0.08664374454252   -0.31221944935119    1.53207869329636
H           0.42555688216269    0.27059096725236    0.82734435202903
H          -1.02246474154966    0.08334707274237    1.49791701835810
H          -0.21912146626188   -1.28339479206754    1.07121633355792
O           3.23325126337264    0.04566040745325   -0.54188296262433
H           1.87182001774465    1.06783247171860   -0.24662220094247
H           2.57764431224365   -0.66765213864328   -0.67344449763658
H           3.69341796030360    0.12432235268502   -1.37925334874388
O          -1.37528550336505    0.20288493318557   -1.40024830818006
H          -2.11374656807728    0.56532774329583    0.00406036828859
H          -0.46857396956462    0.53127111860154   -1.32642791620122
H          -1.30485082446267   -0.72275692576399   -1.70672205036678
N          -0.22087307064165    3.15190431970797    1.39577260258055
H           0.03867903080865    3.18722463649105    2.37389193327124
H          -1.11932065477392    2.68390155228351    1.33255186878468
H          -0.34740337476389    4.10285472898732    1.07271353260393
