    26
        -50.44540650  Gyration_radius:  2.75910805934 Dipole_moment: 1.147
 S           2.78773750377354   -0.47022671835543   -1.12559674539216
O           2.63884983891163    0.95675240167556   -1.06457290974566
O           3.09925261661229   -1.03133385426818    0.25465198585769
O           1.72626410434969   -1.18824795790894   -1.75412477543390
O           4.11497535648419   -0.78460228174633   -1.90377069185085
H           4.75506039723266   -0.16155060451387   -1.56835811893409
O           0.27467494741534    1.50835512001084    0.13462779525381
H           1.10654787505404    1.62571405374881   -0.35139343122040
O          -1.06400338873483   -1.53020531962411    1.44461182000071
H          -1.48651360864706   -2.15915395375516    2.02971966177660
O           1.28981967850837   -0.29200233522748    1.76085662389679
H           0.54388709521350   -0.93102470539105    1.72941170990761
H           2.33981019541334   -0.73769608726275    0.95795768399055
H           0.93931805109850    0.51005805839349    1.28855709720559
O          -2.08664647726459    0.86205904962213    1.69414372004792
H          -1.32766346632923    1.42563866323899    1.50579535908926
H          -2.65605194324743    0.93172271227084    0.88964060033347
H          -1.50987366506982   -0.64717680393416    1.60726415245279
O          -0.83232848119641   -0.57796611113169   -1.18015107520881
H           0.01251839678453   -0.86632251044251   -1.56667783345437
H          -0.96938676036275   -1.14111500768189   -0.40243138451563
H          -0.24638652647456    0.87721191512212   -0.41105191145263
N          -3.31423847641795    0.97156841028204   -0.72390756946201
H          -2.59293892964744    0.43427580959840   -1.19725597322216
H          -3.33879227528457    1.89149739258307   -1.14533057801295
H          -4.20389207817150    0.52377065453164   -0.90261520159870
