    26
        -50.44540675  Gyration_radius:  2.75921754477 Dipole_moment: 1.145
 S          -2.12858250360279   -1.58384821785413    1.49038128756508
O          -0.96135260108497   -2.42045768764685    1.49209474079456
O          -2.00138489328286   -0.49252430135467    2.54377866742253
O          -2.51732781425932   -1.04683558887058    0.22632232373663
O          -3.32882415241356   -2.42786443088820    2.04998487828113
H          -2.97321972824652   -2.90376600609799    2.79667055037175
O           0.03563373378733    2.35624816796578   -0.04292344006284
H           0.03927442230725    3.31348027798983   -0.05415997386809
O           1.07981268230908   -1.02970220546560    0.38259729220946
H           0.56335661767322   -1.76433229108967    0.75081407208143
O           2.39946974393014    1.37370137994480   -0.56939683065911
H           2.39715485246400    0.55914583560280   -0.05394885054636
H           2.29945757058288    1.07693467631636   -1.50659703373392
H           0.97290788159377    2.06630720761351   -0.24924627993912
O           0.09523901760276    0.72320235804624    2.07887567711521
H          -1.09844908987359    0.07210259378810    2.39148603247921
H           0.61492922538376    0.05391428302411    1.55838997642440
H          -0.07298232476726    1.44610984025729    1.43478608957769
O          -0.65755039815051    0.01004376049200   -1.40876613506238
H           0.56193340046880   -0.72658673475765   -0.39671806511875
H          -1.43454393480555   -0.40253544468780   -0.99354918019681
H          -0.63387037280189    0.91971782193813   -1.07311172766497
N           1.81221443560576    0.34049529110579   -3.00922857890733
H           1.77366278929549    0.91007369371878   -3.84462320323848
H           0.85982633069273    0.09157547415657   -2.75631100002317
H           2.30321510960385   -0.51459974324249   -3.23760128903901
