    26
        -50.44540671  Gyration_radius:  2.75892004305 Dipole_moment: 1.147
 S           1.87682961231547    0.05950760334244   -2.39414596030286
O           1.39684298990256    1.40587062481178   -2.25517399993404
O           2.96483741125128   -0.22483983026643   -1.36878137372703
O           0.88392150173026   -0.96593427045551   -2.40014696974122
O           2.67765726967435   -0.03110247178064   -3.74198074737583
H           3.20377547380071    0.76422075481540   -3.77334534996195
O          -0.11812933501328    1.53438103362269   -0.01542710300905
H           0.29846833534016    1.77931355610784   -0.85720254733178
O           0.25164905498174   -1.53050809623938    1.77627692841188
H           0.36405990499034   -2.15661627988932    2.49165492732756
O           2.01298263073579    0.26293841125994    0.85442158488767
H           1.27186960242639    0.88786628390907    0.63182943568899
H           1.55513019448411   -0.53303790542370    1.20488903766046
H           2.60444637068774   -0.02617107782789   -0.37369113079768
O          -1.12575991147515    0.56009772780470    2.52664281621180
H          -0.74531500421608    1.25769041611780    1.98097396382050
H          -2.01152302460715    0.38374574182494    2.12569920379335
H          -0.27924515212087   -0.76599716533178    2.14859169665976
O          -1.11107890336518   -0.91263256286083   -0.59349310914136
H          -0.52535096190796   -1.04034286211877   -1.35966958102389
H          -0.68705273021243   -1.38312594250435    0.14098359295562
H          -0.64538234446353    0.73025464525856   -0.22244525442154
N          -3.36093687423526    0.04931405198747    1.07465996946185
H          -4.06213677093578   -0.61664724533898    1.37240251865174
H          -2.85118108506069   -0.36020145082135    0.29655454302407
H          -3.83937825451596    0.87195630962278    0.72992289825364
