    26
        -50.44540676  Gyration_radius:  2.75910265641 Dipole_moment: 1.145
 S          -0.05833231771699   -2.39172752010577   -1.88035675257066
O           1.15928880927043   -2.85923453992633   -1.09596527351572
O          -1.24496731847728   -2.50767763579440   -1.07988220387491
O           0.16936609501086   -1.12113938185895   -2.48956031896831
O          -0.13678218709777   -3.47011680940979   -3.01924028453342
H          -0.45955869400837   -4.26059888613415   -2.59338569843301
O           2.00764437014575    1.01066524026487    0.71130935006823
H           2.82930340680096    1.41386963040357    0.99187576575790
O          -1.20023972489118   -0.55223831907474    0.79259373009736
H          -1.51540180112745   -1.28190832357108    0.23563420847062
O           0.05514112262841    1.53861723287633    2.36674896323397
H          -0.48741380480298    0.74496768896159    2.29639279130525
H           1.32068713075712    1.25835589910440    1.39809166869893
H          -0.45186394766560    2.23239939450745    1.87893814237867
O           1.23059521333524   -1.53749473124140    0.98658505482488
H           1.24018180617591   -2.31560070111983   -0.17087792965988
H           1.72250895427787   -0.70033922766616    0.83509973219733
H           0.28451377354724   -1.24633331943569    1.08306518824393
O          -0.16597155183336    1.13052521995730   -1.05258839084630
H          -0.08425922165356    0.44009328032036   -1.73303623169981
H          -0.97357819458060    0.16531223815896    0.15906466302545
H           0.71413590756829    1.20909279029626   -0.65259846102674
N          -1.36014709403416    3.17385949939736    0.72674378808252
H          -1.11738091767388    2.66013758615655   -0.11606351126475
H          -1.11280233580629    4.14428842426015    0.58174649798194
H          -2.36466747812680    3.12222527074645    0.83966550206962
