    26
        -50.44772977  Gyration_radius:  2.51296290756 Dipole_moment: 2.773
 S           0.92885665454599   -1.70401993867233   -0.83609559164531
O           1.20909081215333   -1.02323996713827   -2.07786182299752
O           1.99911397248828   -1.49355501789759    0.15435641189362
O          -0.37716934266882   -1.41586244268163   -0.28783965315782
O           0.95850890842613   -3.25448169481011   -1.14481836230610
H           1.80649688864204   -3.33450013325159   -1.56822944422209
O           0.37846060270135    0.02715062339808    3.38833755416218
H           0.21580722389472    0.67794601841569    4.07280186677066
O           0.32569891303276    2.12384941784379    0.24371246003262
H           0.61998795210003    3.03147341170294    0.15290655218576
O           1.95376950935356    0.57486523372854    1.46068412014860
H           2.01495212204633   -0.34474237464255    0.87745269230946
H           1.34343410241858    1.21271800403909    0.93945453734372
H           1.43096924212153    0.32123777207981    2.30622707757582
O          -1.40590940665598    0.29225207496579    1.50611729715469
H          -1.14846192310791   -0.43201435810930    0.90382463373311
H          -0.41582680761137    0.03663272446352    2.78370479115602
H          -1.08766815298122    1.09517859870782    1.07054785757674
O          -0.07704703416222    1.29384017648544   -2.10695996115962
H          -1.00563036583162    0.95974726556937   -2.10860708102649
H           0.16480451367366    1.79017919111482   -0.71925060153045
H           0.46858726660041    0.48570867665454   -2.21004993028324
N          -2.42426978087241   -0.01685383400824   -1.78736617918438
H          -1.85341190373813   -0.71100114167194   -1.30679562379101
H          -2.87989930498139   -0.47699227716292   -2.56501937146871
H          -3.14324465168958    0.28448398108917   -1.14123420938542
