    26
        -50.45479416  Gyration_radius:  2.47103414226 Dipole_moment: 5.901
 S           0.83657056322148   -0.21661334706012   -1.92048279804778
O           1.89573900403457   -0.01293471242103   -0.81122063657213
O          -0.47013883632733    0.04953954029896   -1.34609204833190
O           1.17913443913758    0.58283164763302   -3.04431671614085
O           0.93392135390461   -1.70434918477292   -2.25974841868660
H           0.76578923255996   -2.22295958912039   -1.36198441635952
O          -0.33136038348455    2.55594412098055    1.16054819369364
H          -0.17692593029055    3.40097534265091    1.58496423908680
O          -1.19500113094113   -1.43462063801365    1.82966800074560
H          -1.63986950885327   -1.59741953817005    2.66246369893833
O           0.97181271564316    0.19317720953060    1.54360345481460
H           0.24484185883103   -0.44324006733183    1.69397844417013
H           1.51880058926045    0.04340013529919    0.13914246142428
H           0.54996379355568    1.07394694176196    1.50813795948626
O          -2.28477076476555    0.58418141648800    0.58106714937292
H          -1.82878204033918    1.37420560352071    0.90685604212095
H          -1.84246655892218    0.37680967876189   -0.25851061487782
H          -1.72460385730140   -0.73065124121230    1.36158477148750
O           0.00155588412345    2.68370820376876   -1.48543418765010
H           0.74458160261932    2.72079994186233   -2.09350235799661
H          -0.34479737751575    1.78089870501762   -1.58867713955840
H          -0.17188538596826    2.69343199708466    0.19895644619638
N           0.60940207566053   -2.83609331624810    0.00544757523021
H          -0.16414179535367   -2.41898153226015    0.51974570724429
H           1.46198813795154   -2.66079119715697    0.52247314561996
H           0.46064231956532   -3.83519614088916   -0.04866795540617
