    26
        -50.45479418  Gyration_radius:  2.47114765533 Dipole_moment: 5.904
 S           1.25860308614620   -1.15384122762541    1.23296363340029
O           1.33486535334193    0.36304542890149    1.52832663178880
O           0.51146560306156   -1.33290960037987    0.00092814861892
O           2.57294615599315   -1.69415663010384    1.22924902445088
O           0.44007666475916   -1.71865921664361    2.39434831517417
H          -0.47482148352253   -1.20258530565683    2.38871826410164
O          -2.54334044527443    0.50468135512966   -0.34240379928538
H          -3.30914652071900    0.90052875422934   -0.76051062814911
O           1.02565967502869    1.35242245393198   -2.26056273285165
H           1.47189210697649    1.97669854969470   -2.83428762871516
O          -0.20184084697297    1.81851545297241    0.12744646767859
H           0.69364064864069    0.94177047821431    0.97872464649047
H           0.23003023261705    1.76566251877209   -0.74762161606835
H          -1.07899900110247    1.40116014759293    0.01614345282099
O           2.66040768080527   -0.58094414574508   -1.41253663611549
H           1.91336158926900   -1.06082318080573   -1.01607339811617
H           1.70214456237756    0.69161385421991   -1.98737611088096
H           3.36367594189784   -0.66407701312476   -0.76314922994123
O          -1.00101605352819   -0.62594418995631   -2.12174478068614
H          -0.49293536686987   -1.11495488588009   -1.45371768665885
H          -2.06119080019797    0.00333231134789   -1.05734455841369
H          -0.39655985344849    0.06622048295916   -2.42781851658611
N          -1.69678689196888   -0.32357998843449    2.33043805323273
H          -2.44070465672269   -0.68136367282415    2.91514685603090
H          -2.04766069441472   -0.22748214258911    1.37937935216210
H          -1.43376668618382    0.59566942178682    2.66333447652773
