    26
        -50.45116927  Gyration_radius:  2.66179743896 Dipole_moment: 3.389
 S          -0.60603474582967   -0.03448691049760    0.91975662892127
O          -0.16487533057604   -0.86293712656549   -0.29645610749331
O           0.49680769967524   -0.31670599959204    1.93289646290089
O          -0.59983822584338    1.36661094500372    0.56543705861240
O          -1.86388940267424   -0.52902068756095    1.39861499547623
O          -3.86098212350358   -1.04847230920760   -0.26945750465972
H          -4.24760732446205   -1.88951717913641   -0.02019994188279
H          -3.22567057699791   -0.81985458661382    0.44093788573574
O           3.64536276574892    0.87954578523967   -0.18187112062956
H           3.33846947923460   -0.06527038692284   -0.18510409007750
H           4.55008400668944    0.87558832515929    0.13475637680182
O          -2.14066619833568    1.94242362853091   -1.54156686369169
H          -3.00965586357018    2.12707232892436   -1.17888627696601
H          -1.53418814903880    1.87789192709989   -0.77753675897438
O          -1.91530204984621   -0.64473225899918   -2.03328998410785
H          -2.72745287707437   -0.91053671367423   -1.54260432296842
H          -1.98086146495030    0.33880170429606   -2.10201402875616
H          -0.88880019421871   -0.80578234459128   -1.09094544871694
O           1.86952202148271    1.72958784695097    1.56880532356984
H           2.56313849513858    1.50693846411493    0.89220199629293
H           1.12625842097613    2.11986286121894    1.08691623991927
H           1.14869302090811    0.49646929938084    1.87113312062514
N           2.66881424019882   -1.61142358220473    0.05722394102871
H           2.68102398535370   -1.89105755548285    1.03104694214179
H           2.98088527083246   -2.39851047276597   -0.49818228272784
H           1.69676513067291   -1.43248500211466   -0.18161225037326
