    26
        -50.45479423  Gyration_radius:  2.47107638345 Dipole_moment: 5.902
 S           1.42594913537087    0.79388230576222    1.33207776355642
O           0.88517475358090    1.83427055892328    0.32249018105367
O           0.97197369743068   -0.51869406531607    0.90867135028409
O           2.83493171642339    0.94148229090156    1.44320844608007
O           0.73426424657556    1.15599635344161    2.64677937333136
H          -0.29811802997062    1.11791741937230    2.45728740629482
O           0.72780962345911   -0.75799959805668   -2.62352288950665
H           0.97718621660110   -0.74830261493205   -3.54859889375870
O          -2.47506520860402   -0.84411741462612   -0.00528027638516
H          -3.27019859734073   -1.22136872586757   -0.38397357742081
O          -0.39835100035394   -2.33125060031830   -0.55115704608409
H           0.16309409509941   -1.88829582020193    0.10615020027536
H          -1.74871845872275   -1.51094738374648   -0.15657204675692
H          -0.06559007415577   -2.01793270609732   -1.40516743889704
O           2.84381826231392   -0.54769199832690   -1.00886811174911
H           2.28832213390641   -0.72499477200231   -0.23064785509925
H           1.56116323679898   -0.66042265479756   -2.10876456270280
H           3.43395126974264    0.15377395442869   -0.72097685909763
O          -0.88928390825065    0.97264141985693   -1.27499854826051
H          -0.35796773788869    0.39415087177664   -1.85638389829732
H          -1.52003155532154    0.38175990705158   -0.81763693797797
H           0.15086894915333    1.48775827438029   -0.30118881002819
N          -1.74228912682975    1.12465238288896    2.02780772501590
H          -1.97377531526941    0.30496051043102    1.46984594116242
H          -1.89240453472263    1.94697673307055    1.45660984534717
H          -2.36671379902443    1.16179538202128    2.82280951963068
