    26
        -50.45620277  Gyration_radius:  2.42258896574 Dipole_moment: 7.326
 S          -1.89241007865828    0.18122530162217   -1.13143438486741
O          -1.54564183410479    1.40864926090372   -0.43723746567516
O          -1.85502872838342   -0.96653881227263   -0.17130456896176
O          -3.07747618546659    0.20257129803715   -1.91413711944484
O          -0.67251172373397   -0.14736671556844   -2.11073963736032
H           0.12438496096244    0.35185228211510   -1.82847240893710
O           1.64538442440248    0.99752328004090   -1.45095218294508
H           1.98648638239627    1.53023020768469   -2.17011133512772
O           0.86864854188774    0.35878749048682    2.30176081350704
H           1.10852482324619    0.30898933152101    3.22748104689134
O           2.03242336481313   -1.05722366220260    0.30480777644964
H           1.66566312938318   -0.60699626534160    1.09364170492672
H           0.93284551514444   -1.95467022299637   -0.31435095607066
H           2.13237670796373   -0.35405647458134   -0.35947630278353
O          -1.72939298410595    0.34396510671220    2.09535955116098
H          -1.94886117596270    1.20612886563847    1.72519306908478
H          -1.86636416616760   -0.26278622480572    1.33527034130965
H          -0.13034373176389    0.30505718322982    2.26698872360135
O           0.71487943013590    2.43451798464528    0.45777274056267
H          -0.19958647761157    2.22738681992162    0.16566644494932
H           0.86962978842103    1.87036593646968    1.23306575512902
H           1.36489861675393    1.64219520041475   -0.72463331513015
N           0.09421912123057   -2.43238408949198   -0.78837635992954
H          -0.80505003093878   -1.84708142900924   -0.49173400811533
H           0.01019965387668   -3.40596031716068   -0.51619774912839
H           0.17210266628006   -2.33438135601211   -1.79785016309716
