    26
        -50.45479411  Gyration_radius:  2.47120598127 Dipole_moment: 5.898
 S          -1.01156937792292   -1.81415347462752    0.34625842237693
O          -0.87679026884831   -0.52289884142223    0.99637824819973
O           0.10059380768143   -1.92829212683359   -0.72329850595916
O          -0.94303823032881   -2.93899409609251    1.21193098423542
O          -2.30885671601697   -1.82731131147449   -0.46303431461176
H          -2.23917277897835   -1.03042796636654   -1.14336423527458
O          -0.40366987496104    2.33004199620935   -1.11632698124861
H          -0.18341365440611    3.22508758928592   -1.37778575279891
O           2.50806601148085    0.51562060968212    1.19733988485749
H           3.44112595814471    0.51596743905685    1.41502341162046
O           0.08199348426979    1.96516921125958    1.42402967196479
H           1.00841071673035    1.68788968594933    1.47940942558028
H          -0.29875863689970    2.29354397308299   -0.12497837762331
H          -0.42264892865494    1.13596674749497    1.45988393502813
O           1.18902023502915   -1.45357480888952    2.42697971863260
H           2.10969886788099   -0.24540064005558    1.67805331513378
H           0.33812475297362   -1.09352579751810    2.12369677854983
H           1.09391264924637   -2.40343075587056    2.31777130643221
O           1.32903144898863    0.23067868318154   -1.24342520553677
H           0.57488685413404   -1.04889330834241   -0.94739326991731
H           0.71035630546491    0.98677970636499   -1.28486408840046
H           1.84918686653165    0.35802793379467   -0.42600629983092
N          -1.96885764456240    0.07709094794085   -2.12909133751394
H          -1.28101663815011   -0.25920733395734   -2.79147457778489
H          -1.59073236536216    0.90500075162314   -1.67264866133091
H          -2.80588283346393    0.33924516654046   -2.63306349479263
