    26
        -50.45620272  Gyration_radius:  2.42258129649 Dipole_moment: 7.327
 S           0.36274138224625   -0.92263978952869   -1.97759316600137
O           1.56196222613320   -0.32332473045785   -1.41962544494721
O          -0.75312178264565    0.07491297068152   -1.95867858728395
O           0.49761664339043   -1.57014049997475   -3.23456072221039
O          -0.13265577226105   -2.01551442568470   -0.92148626956503
H           0.28095435789571   -1.84455014497643   -0.04763072954782
O           0.75983731641706   -1.66497516493660    1.56829302972396
H           1.22849810612037   -2.43920514409371    1.88182943351157
O           0.32550707379142    2.17460028757164    1.16043619452246
H           0.27592291163349    3.06952808505346    1.49746126817859
O           2.34972289891631    0.27264309215693    1.02734055300105
H           1.45352005350897   -0.94008058497419    1.44583813445859
H           2.23986181354501    0.09222785208703    0.06826459657452
H           1.79472932914287    1.04928919347194    1.20649409424907
O           0.60038779054599    2.25658579997509   -1.43002901744206
H           1.47082374102814    1.87708674518763   -1.59402095623871
H          -0.00870685732673    1.54242478165912   -1.71924666128746
H           0.38489530359092    2.25229385943385    0.16420085805717
O          -1.27259928899614    0.12306755650327    1.92468695813057
H          -2.05666931828842   -0.33179732561301    0.66915908550603
H          -0.60571059838230   -0.57756596824999    2.02489273522123
H          -0.76000386764224    0.92768635344944    1.70260996540745
N          -2.44975866959464   -0.68933423318022   -0.26559259707460
H          -2.39213680139855   -1.70452123033164   -0.29344189929278
H          -1.75695187177477   -0.32093252146518   -1.05524820547872
H          -3.39866611959571   -0.36776483376407   -0.42435266017192
