    26
        -50.45620273  Gyration_radius:  2.42258753 Dipole_moment: 7.327
 S           0.12941916153567   -1.49060497785367   -1.62947823444048
O           1.13394840464593   -0.44931097099660   -1.75297993142165
O          -1.22248600307297   -0.86823441153292   -1.46954967182929
O           0.14784024745252   -2.51586596301853   -2.61227744357455
O           0.36280372360014   -2.18066859662367   -0.20664647633823
H           0.90366480154884   -1.59208794117957    0.36342228763985
O           1.69776595279418   -0.69553187440155    1.56273490550309
H           2.47951563696778   -1.15003323061081    1.87841135416469
O          -0.18399392668041    2.46116767521935    0.30115478623288
H          -0.46109746044904    3.37519524296567    0.36979689153560
O           2.27551777307965    1.21218890131818   -0.05015750531485
H           2.02359396022700    0.07305896437726    0.99283356047508
H           1.98660658380926    0.65705868649383   -0.80700753528960
H           1.54717701508943    1.83652723958372    0.10156942495141
O          -0.66846395872869    0.53550944405369    2.14619410221661
H          -1.53988927777191   -0.54309093492955    1.45674359021734
H           0.20701888812873    0.11342704099471    2.17837953523765
H          -0.55986103005048    1.29252820774909    1.53414495608641
O          -0.65865848596948    1.60883536451006   -2.11568918439781
H           0.21239801245369    1.42124373347050   -2.48262991589288
H          -1.02260958410985    0.71277780255165   -1.94451572895567
H          -0.42462228623914    2.16316989706157   -0.62368669293825
N          -2.01133863877355   -1.31619202297093    0.87696173051661
H          -1.73583261791248   -1.12077939612071   -0.18378236757004
H          -3.01771783841669   -1.32360612888587    1.00413314259328
H          -1.60069904315800   -2.21668174122568    1.11192042059250
