    26
        -50.45620275  Gyration_radius:  2.42261665914 Dipole_moment: 7.326
 S          -2.13764576292002   -0.56440702989874    0.08399771274825
O          -1.66807246141027   -0.12116550241773   -1.26640731753038
O          -1.79454373453274    0.44156078039837    1.07348895900587
O          -3.48337955034437   -1.01867059777001    0.07436763899211
O          -1.20347957971653   -1.82787034383709    0.37743706937021
H          -0.44021001393593   -1.55559321197770    0.93179600517414
O           1.41081812342088    2.03786314062940   -0.19732370027019
H           1.90246981140829    2.80937018288994   -0.48016383577396
O           1.01588309213060   -1.29521574258248    1.75931624511703
H           1.06325646289813   -1.82402294455934    2.55646162546348
O           2.16900225731744   -0.53397622816753   -0.59539640380019
H           1.97353582465742    0.42264294185699   -0.51702098036874
H           1.97784608720913   -0.90027567646019    0.28493910696631
H           1.08324716003566   -1.19486951699963   -1.47983461053822
O           0.45210877782734    1.15544432733630    2.25927848922239
H          -0.46739098288116    1.00589330477204    1.94840878241424
H           0.85719399458500   -0.34220095776510    2.05664268978143
H           0.89578994648090    1.62047029997414    1.53115068819143
O          -1.11194954088606    2.38793906830815   -0.75034797747608
H          -1.54820396770122    2.41252159566622    0.10850093396216
H           0.46013472743149    2.19544390688605   -0.46831844058057
H          -1.36422183502112    1.50536712923669   -1.09965627556814
N           0.22449955840356   -1.62481445014689   -1.96346318057622
H           0.36116422253948   -1.71754997376997   -2.96432307559823
H          -0.63219913877842   -0.95355289615211   -1.72935879181870
H           0.00434651178291   -2.52033158544933   -1.53417135651055
