    26
        -50.45620270  Gyration_radius:  2.42260155066 Dipole_moment: 7.328
 S           0.32334282182580   -2.15933604311598   -0.35722065231374
O           0.12643708434821   -1.34865589662022   -1.60005215326024
O          -0.77196949105842   -1.91271013025958    0.56380105317016
O           0.63356631164221   -3.51777896116588   -0.63244563947692
O           1.62190369621942   -1.48928760564659    0.29072159518606
H           1.35414534203668   -0.83663805672250    0.97367104500477
O          -1.83314221849337    1.67742648165961   -0.09218189368227
H          -2.50178085498598    2.31734636966840   -0.33797363115794
O           1.13056785156033    0.42337161991843    2.08476566262163
H           1.54299933315457    0.22369334499162    2.92581100606435
O          -1.41099783908955    0.09370197162289    2.15408152116397
H           0.13376683382683    0.33098732226966    2.22534097130909
H          -1.71991867614082    0.74425408168633    1.50243643564420
H          -1.31446266603387   -0.74662421815949    1.65503084631686
O           0.83352428541910    2.15666647719098   -0.00377051356791
H          -0.13949841251174    2.07733210510923   -0.08369677138862
H           1.04958031878705    1.73003704506878    0.84296193453821
H           1.49837073955851    1.21377006224024   -1.03672895217651
O          -2.36016336677976   -0.59325227087803   -1.25801249857496
H          -2.55062557022898   -1.20033203556374   -0.53433079134841
H          -2.04824159163719    0.83898752238577   -0.59498138045746
H          -1.46760845143075   -0.87697922574480   -1.55366070426618
N           1.90185550886157    0.43269819577946   -1.65585975039519
H           2.14960126725031    0.77201907602607   -2.57914540800901
H           1.11911343126060   -0.35721447766914   -1.70814208831536
H           2.69963430263789    0.00651722592807   -1.19041924262908
