    26
        -50.44480582  Gyration_radius:  2.71559462973 Dipole_moment: 5.489
 S          -2.80797754054814   -0.20581750794920    1.01759872532414
O          -2.20913824915708    0.88702024677531    1.76613973772399
O          -2.56060393043448   -0.03561719113661   -0.42764496389710
O          -2.44579634815085   -1.52135164030897    1.47061639442654
O          -4.37161110948893   -0.04956792575784    1.21076839377789
H          -4.48115054496222    0.88982391889300    1.32428653192867
O           0.64992326595335   -0.28984622684608   -2.57584064805188
H           1.09091014812516   -0.00174282655881   -3.37540855672984
O           0.29432309299100    0.79546332731913    1.12805212761897
H          -0.57934294072112    0.92613015179552    1.57445805432170
O          -0.65369783632855    1.35033894605998   -1.13010011293960
H          -0.14953179162708    0.73503385704836   -1.77955554075303
H          -1.55495899295915    0.81823108157190   -0.88841807717369
H          -0.14692738269273    1.27523507372422   -0.21956367532347
O           2.39250642075195   -1.26327377311135   -0.92505376472491
H           2.76470121378026   -0.52463794149938   -0.38216944156439
H           1.79461827846673   -1.74523288576006   -0.34083541061152
H           1.35766870889178   -0.68932818291145   -1.98321832685007
O          -0.16300831478828   -1.68112196366026    0.21396344670607
H          -0.97517272655594   -1.79942632759581    0.75677760109277
H          -0.47822902110374   -1.67703311870759   -0.69539269344024
H           0.31672491037934   -0.16745306814306    0.92824430874986
N           3.19885435382911    0.79387751100422    0.64893718480726
H           3.60231407134202    1.61905399053251    0.22428978941004
H           3.80894024339685    0.50478612312848    1.40300730459042
H           2.30566202171171    1.05645634205274    1.05606158150011
