    26
        -50.44495269  Gyration_radius:  2.70086192848 Dipole_moment: 4.626
 S          -0.89377891378304    1.92109037055924   -2.06947309765352
O           0.39398828228725    2.39916547314962   -1.53245779476017
O          -0.73097028338015    0.63640454856664   -2.72708290455011
O          -1.93534649763915    1.93798689591838   -1.07348219224239
O          -1.29301663821770    2.96074423748284   -3.19048561888898
H          -0.59992033777735    2.84312897900264   -3.83286619030632
O          -1.61153273980306   -1.52701245051233    1.04565386796692
H          -2.24440035798303   -2.20202021169503    1.29093054806742
O           0.86556259932933    0.95302416624146    0.40290484468156
H           0.76924752934247    1.65791908501224   -0.39173820224778
O           0.52454043143102   -1.52130882231542    2.57772762833230
H          -0.84117053621010   -1.61529692381538    1.66833062733732
H           1.27773492468142   -1.67377327094850    1.94928983621938
H           0.64471010827296   -0.63869713812536    2.93384344262092
O          -1.42836791504905    1.17617462312597    1.36782823184532
H          -1.73864614312869    0.25160113120887    1.33177123099365
H          -0.03701588765410    1.08999097882646    0.94526535537259
H          -1.77657900825759    1.59250934350310    0.54352300079856
O           0.17721324759983   -1.04771408238054   -0.97994137699889
H          -0.59858059646911   -1.35559566373021   -0.47829071130370
H          -0.17247790276472   -0.51538941584569   -1.74103339310615
H           0.71344422673120    0.05581637664557   -0.10142193526108
N           2.47299463911623   -1.82363402965709    0.73364196438090
H           3.04514768621761   -2.65599330628156    0.79226095137821
H           3.08892010565394   -1.02375666196446    0.65680340452409
H           1.92829999717440   -1.87536424186825   -0.12150152731093
