    26
        -50.44480592  Gyration_radius:  2.71551944473 Dipole_moment: 5.493
 S           1.19898667930217    1.79654570453347   -2.07316012339313
O           0.67169267470778    0.66044779357025   -2.81101816300477
O           0.18087377728065    2.32345533354932   -1.14334219800019
O           2.45450132119562    1.56113435271225   -1.41341613150495
O           1.43259762519116    2.93380090384083   -3.14966074097376
H           0.76884232850102    2.74700160150299   -3.80681699947131
O          -0.01979619248425   -1.02160786063823   -0.97386633864061
H           0.27362853912285   -0.57597479709227   -1.80751767849662
O          -1.37628172007040    0.90379123585158    2.10514862266082
H          -2.14286566354296    0.90105999470304    2.67882760672976
O           1.49050601319815    0.40384764507651    0.71879306880549
H           1.00604607768008    1.14342756704332    1.09908604533686
H           0.62701378968238   -0.71328506100091   -0.29989707841731
H           2.02886690799522    0.80482919016116   -0.00075290898346
O           0.09142043515271   -1.17034622922298    2.60745539646569
H          -0.82219056419941    0.10371775419683    2.35953581275214
H          -0.23891230877382   -1.93109326293857    2.06796803665623
H           0.91003524303712   -0.88264914272514    2.18539681433400
O          -1.63229928568206    0.82375264760597   -0.42609654745123
H          -0.92626294693561    1.55230427347305   -0.77830956482906
H          -1.11985632966916   -0.05603756792920   -0.66071717239395
H          -1.60068538926005    0.89835649903591    0.59775768647742
N          -0.75740591396131   -3.13360378331027    0.93901703616846
H          -1.72663822904489   -3.42353216819055    0.96244739833228
H          -0.18457425311718   -3.96709389278062    0.97842142051338
H          -0.58724263548356   -2.68224871121793    0.04471672022294
