    26
        -50.44495293  Gyration_radius:  2.70051378571 Dipole_moment: 4.628
 S           0.65413456490434    1.98175968171820   -2.10098868777120
O           0.26452895340398    0.75805284660069   -2.77926012101007
O          -0.46648185002660    2.51658342734545   -1.30518266831060
O           1.86038181183661    1.85709393196824   -1.32208020939505
O           0.92417592885524    3.06036902457264   -3.22366218411291
H           0.11687430850987    3.03552630348935   -3.72820355783337
O          -0.69018142737860    0.98493948335369    0.60901484115392
H          -0.68424327782469    1.73149870236437   -0.15252086496817
O           1.64296739943985   -1.70737740232285    0.64280079703052
H           2.25097746037742   -2.44134410265421    0.73188824179897
O           1.75358723861951    0.97495302613091    1.12873193245916
H           0.30618337064773    1.01908537665570    0.97529046905131
H           1.97222330261535    0.03431570234873    0.98767445263194
H           1.97652871194743    1.41775105813608    0.27530367588485
O          -0.16633434449988   -1.63972878458865    2.54859010969043
H           0.99555928714570   -1.77723193516102    1.39449434743355
H          -0.14355099854133   -0.77510578095535    2.96348380131591
H          -1.03300327155479   -1.69636903074983    2.06796645142029
O          -0.44365889237282   -0.96592235739561   -0.97946985794005
H          -0.19736278327277   -0.41151707177349   -1.76499668205450
H           0.38286531383885   -1.36277127356444   -0.65155870554805
H          -0.71155588431833    0.11411788293068    0.04042625640317
N          -2.44150169679569   -1.68149215874615    1.09540122047537
H          -2.07018245997860   -1.71686514544222    0.15115687554059
H          -2.99410787171119   -0.83690764793623    1.17597042250077
H          -3.05882288389582   -2.47341374627952    1.21972965425518
