    26
        -50.44480574  Gyration_radius:  2.71551536356 Dipole_moment: 5.491
 S           0.19014978130732    2.29290175733259    1.91551104009221
O          -0.96368832042485    1.37454582543001    1.98097963291425
O           1.43324691197989    1.55659861702706    2.07569175491381
O           0.13278478297361    3.14154486242709    0.75643480472288
O           0.07662064458872    3.22272997759806    3.19198703793693
H           0.53542427452786    2.72477643623729    3.86195689352087
O           1.38944627901498   -0.18644789920825    0.16693472167990
H           1.64323582555804    0.45872327935122    0.87325102411587
O          -2.25321629435450   -1.37060383510254   -0.42246576069168
H          -2.74667590814793   -2.18784493795023   -0.49579690367470
O          -0.53360801456075    1.29565963441137   -0.96535163033794
H           0.82398230283639    0.33958412700285   -0.44236679493094
H          -1.40699509751086    1.06928396366167   -0.63026499395553
H          -0.28346392278278    2.11042882253687   -0.47356247396311
O          -0.59383914805253   -1.00346957338772    1.47270238730758
H           0.29438901343399   -0.84648066425952    0.94545012415149
H          -0.79814732038251   -0.00089756638429    1.80017244614103
H          -1.30763449815871   -1.19902348671410    0.76071524444877
O          -0.80100897264177   -1.03841862711685   -2.54132257779034
H          -1.73394076765412   -1.26880356491094   -1.27791607931948
H          -0.61413883376804   -0.09625126746412   -2.44960540081438
H           0.06424906965023   -1.50020293310977   -2.41056973056889
N           1.61199748596100   -2.15687765530767   -2.00829847916248
H           2.29698243097375   -1.99185043901661   -2.73489554945924
H           1.66365591388408   -3.13423381985427   -1.75122679345875
H           1.88019239170149   -1.60537105317612   -1.19814396386340
