    26
        -50.45364709  Gyration_radius:  2.3753928285 Dipole_moment: 2.948
 S          -1.62349457318763   -0.53689786534596    0.54653942796695
O          -1.20158461853479   -1.90722503349409    0.71933958480420
O          -1.14004709083066    0.33426271276611    1.62212606607292
O          -1.32067848192136    0.02553992200483   -0.75077901242710
O          -3.20373894902509   -0.53166707705581    0.66028344772281
H          -3.36224881416468   -1.08062551939026    1.42107590207346
O           2.03661941763940    0.12853659616485   -0.02413042972914
H           2.04968974748417   -0.25800944440878    0.89263298472966
O          -0.89153101797123    2.59711745530232   -1.51941359383972
H          -1.54362211357296    1.89778803345242   -1.35869318404310
O           0.52968821077721    0.66993717311935   -2.72671384617645
H          -0.08429309190403    0.22157226638603   -2.12198553739219
H          -0.32574771611670    2.22543346262471   -2.22507941559939
H           1.41681766129189    0.47975391449329   -2.41221996140143
O           0.71291363874413   -1.92986006467700   -1.09655407872694
H           0.27878213382398   -2.02858769328273   -1.94601824213305
H           1.60547596922106   -0.58811389098823   -0.54059336828626
H           0.01338424892021   -2.02706059196456   -0.41690755971710
O           0.44292674994184    1.96523259427710    0.54370818004596
H          -0.23592377485206    1.39094956570415    1.05633769626863
H           1.17227936724411    1.24734268893836    0.22849599846098
H          -0.06061576050549    2.32729285978761   -0.29143926179829
N           1.35518772809707   -1.02749027372437    2.25713965862005
H           1.71786520021256   -0.96524840893376    3.20015270376278
H           1.24040012410404   -2.00850069407856    2.03154442273857
H           0.42149581514006   -0.62147268767776    2.25115144797452
