    26
        -50.45364703  Gyration_radius:  2.3755138641 Dipole_moment: 2.946
 S           0.91705089913582   -1.53318912894006    0.17770648340766
O           1.67265836313801   -0.55611159890068    0.96761148030093
O          -0.13085954240240   -2.16529705690033    0.94471172257579
O           0.48109618084706   -0.95931369357407   -1.07585695450050
O           1.94859679746403   -2.67300492916590   -0.20531870266956
H           2.05408886182920   -3.14543344845406    0.61379212194586
O           1.48361355766835    1.10351909602809   -2.53705148367150
H           1.52234469788020    0.15329125898925   -2.34884037656041
O          -1.18597239184706    1.56565724084612    0.55519073785136
H          -1.01063316893655    1.33274631871161    1.50655133226534
O           1.22571516011286    1.68638126778336   -0.08130412459333
H           0.17393680501966    1.71405953364166    0.11780907964184
H           1.52009210175761    0.81178106023475    0.36806348037621
H           1.37480348594908    1.54940458759957   -1.10167910008915
O          -2.17435030387244   -0.83762204729399   -0.06692999084663
H          -1.61518892636579    0.74677508358076    0.22141904567020
H          -2.36732276671897   -1.24232728956875   -0.91476575317672
H          -1.48672427196459   -1.39504382536124    0.35419135992025
O          -1.17652751731399    0.77405674542828   -2.48543458355011
H          -0.79864193068280    0.03587996334872   -1.97935951779229
H          -1.69701867262756    1.29509673386077   -1.86927639091396
H           0.56802151815535    1.23765159305544   -2.85360709304682
N          -0.43224618077827    0.33362386526279    2.77304118120311
H          -0.17677359964732    0.66185956745484    3.69586389252001
H           0.39844911110469   -0.06406409062438    2.33883472531273
H          -1.08820825683362   -0.43037680700258    2.88463742832724
