    26
        -50.45364698  Gyration_radius:  2.37538701745 Dipole_moment: 2.951
 S          -0.53654715504051    1.62401395376695   -0.54696892033558
O           0.55233339575411    1.89145765774214    0.39761137294003
O          -0.05639821192709    1.41834254214269   -1.89335118105969
O          -1.40518654247280    0.57856210411290   -0.05328708266458
O          -1.41930635816956    2.93923373023559   -0.57636923187621
H          -0.88476534517046    3.54079703955981   -1.08392884302158
O          -1.90448067156070   -0.26905159701804    2.47814888902633
H          -2.13172116732403    0.35022470456846    1.76723563549383
O           1.22685598593661   -1.62143263856587    0.18137829763740
H           1.97906672461064   -1.06130810778441   -0.15103293396354
O          -0.30324227915483   -1.20802136942260   -1.96978387301152
H          -1.23180643992915   -1.38778331950810   -2.12894830964063
H          -0.19381699181455   -0.23700485838770   -2.04624009480107
H           0.59994625918528   -1.58898049969412   -0.57503269373371
O          -1.85785496554066   -2.10739506107017    0.52437924827343
H          -1.05365409166895   -2.61024739775616    0.37458738083975
H          -2.08951610663140   -1.14550453607997    2.08676787710789
H          -1.73302745792118   -1.24455811864906    0.09600237662323
O           0.57790562838681   -0.04383100104734    2.00482045526319
H           0.59890559849936    0.81511875299978    1.44347038078300
H          -0.41066754103929   -0.16625433357860    2.30404080861296
H           0.82372151695496   -0.80206339976637    1.28937338255681
N           2.67113976720692    0.33741504247087   -0.85854945548178
H           3.63127103031723    0.63193029754636   -0.73152690039025
H           2.06611775769222    1.06308156676817   -0.47897590530939
H           2.48472769070718    0.30325884641432   -1.85382068982612
