    26
        -50.46212479  Gyration_radius:  2.51206370159 Dipole_moment: 6.144
 S          -1.05491055817671   -0.09480169612230   -0.73160218350859
O          -0.03585010740931   -1.16221813399952   -0.63083451102130
O          -1.48848152052731   -0.03516384710085   -2.21428200682612
O          -2.20977018851991   -0.39297578286998    0.06919372941577
O          -0.43405838851119    1.18816193687145   -0.38591867004485
O          -0.49309095070493   -2.66143050520953    1.54412496016553
H          -1.23437127142917   -3.26706428641226    1.49751331544126
H          -0.47329090384814   -2.20158620204927    0.67858610629040
O           0.76538754117366    2.75350503328279   -2.11200209625396
H           1.48741789807790    3.15571270937250   -1.62664095167498
H           0.23047812898198    2.26327206342849   -1.44542790739564
O           0.44034871869582    1.26710408479515    2.09193368316764
H           0.09370832775956    1.46304379286752    1.19204609073586
H           1.26978437791846    0.11483211077150    1.72009123488303
O           0.69529688704804    0.51980386766905   -3.54229768958355
H           0.41130581415455    0.71881850106156   -4.43716270178797
H           0.85024104328195    1.38822941794581   -3.10365084897861
H          -0.64002937362239    0.08783021551850   -2.71038151885258
O          -1.55519489935420   -0.33864550255008    2.65884848453715
H          -1.18370856165788   -1.23299693519772    2.61008353476119
H          -0.32476044515698    0.81236375464234    2.52916619646249
H          -1.99792913436068   -0.23123605759535    1.79367264629514
N           1.67415211309712   -0.81102593528958    1.26513359909255
H           1.45086440334960   -1.61359281296870    1.85282377732416
H           2.66681607410456   -0.76219708353137    1.06626076133934
H           1.08964500563194   -0.92774272731611    0.37072296600991
