    26
        -50.45364686  Gyration_radius:  2.37540274957 Dipole_moment: 2.956
 S           0.75960682084385   -1.07695562126845   -1.22043407885901
O          -0.28244223766540   -2.07074558960062   -1.11003381157602
O           0.32752959052721    0.10047408841818   -1.97967809302836
O           1.35636576092037   -0.69060509527952    0.03890187930154
O           1.92631693485897   -1.73535528813915   -2.06607173084812
H           1.45900212119358   -2.14687763751101   -2.78538653491406
O           2.56466238466168    1.61986130593025    0.79442287387709
H           2.65749893678691    0.74693675473357    0.38189381512986
O          -1.49511466804965    0.99324056684957    0.97331112074420
H          -2.08500078369393    0.82642864361091    0.18956520659842
O           1.09269852719232    0.31843850740024    2.62177629473909
H           0.18422155945059    0.59043173423415    2.77232646587400
H           1.09167023401562   -0.23251449994349    1.82181551099642
H           2.26700090951519    1.41359950306187    1.70235877944882
O          -0.97425418598921   -1.59412271532052    1.39161867331659
H          -0.77795487175583   -1.85805567652623    0.46829850212888
H          -0.31900791708245   -2.02846157465012    1.94099265286963
H          -1.27418032089243    0.07916822808444    1.25923977643268
O           0.34403323291696    2.02719867667306   -0.36237459073936
H          -0.41606378757553    1.65221003676510    0.29220641768061
H           1.26455095600893    1.97336834204293    0.11913096078329
H           0.37316123358853    1.32071972388117   -1.10643159663368
N          -2.50539223020942    0.09751875722265   -1.30305003978638
H          -2.77978558553260   -0.85893380493122   -1.11225219847861
H          -1.59446120067968    0.04893918487551   -1.75529802049605
H          -3.16466142334603    0.48409344960849   -1.96684823450663
