    26
        -50.45364711  Gyration_radius:  2.37545625814 Dipole_moment: 2.948
 S           0.51361736454368   -1.63717255666665   -0.52775096512194
O          -0.35812652831632   -1.87686971507208    0.62640809223830
O          -0.22538892486678   -1.55854560228869   -1.76612016998654
O           1.39874717720034   -0.51989396105588   -0.28461713905306
O           1.44848878700690   -2.91148514770730   -0.63826096470694
H           0.86252605686079   -3.57328794523760   -0.99026081129992
O           2.32320241130493    0.54844238747067    2.03869500107362
H           2.45340574737639   -0.11908101855886    1.34775462896113
O          -1.25960525753578    1.57658776972444    0.30358442803269
H          -2.02859438603611    0.96083628978652    0.16357942459408
O          -0.18628457340678    0.17586620939996    2.07039722809909
H           0.83248761664086    0.36438067772686    2.16296300659859
H          -0.60682228147685    0.86413694053534    1.36599918421473
H          -0.26470851489932   -0.72466614450220    1.58415069140634
O          -0.14763748687159    1.06140238841167   -2.07070282832702
H           0.72176129463663    1.26755305323082   -2.41923761335107
H          -0.21409237007653    0.08357685109846   -2.05710305975881
H          -0.78813839586465    1.51143927510688   -0.55649535061154
O           1.80106751505836    2.21747141465537    0.00610207364934
H           0.95540357063261    2.67175874802751   -0.01650858012222
H           2.37621729245606    1.39532743176941    1.55255024911520
H           1.64579664742410    1.31889932828009   -0.32891950732919
N          -2.76273786340274   -0.51727372332849   -0.29712984373474
H          -2.05652098964708   -1.18469470852307    0.00707989349164
H          -2.77107890900292   -0.55348903036845   -1.30959328525756
H          -3.66298498012252   -0.84121919177263    0.03343619717435
