    26
        -50.45364695  Gyration_radius:  2.37545617453 Dipole_moment: 2.952
 S          -0.84339324266183   -1.28297969516939   -0.93178667874803
O          -1.51490724710915   -1.80266927552522    0.23641878171757
O          -1.43783109361893   -0.02859039331836   -1.40365232665716
O           0.59042761228661   -1.15646799962337   -0.79314296224574
O          -1.07302621986240   -2.33651681697646   -2.09246962513003
H          -1.99922632559086   -2.53897263099656   -2.01239739959888
O           2.35215202042787    0.51384022020797   -2.01049759457810
H           1.87127442944649   -0.32765532769541   -2.04493703011605
O           0.23648918022922    1.48800794973318    1.37794435960952
H          -0.75413867030079    1.56171128502672    1.43475217354261
O           2.80037298621797   -0.13033554164276    0.55470312514029
H           2.02022338974291   -0.63694985047232    0.27491887737853
H           2.89665685422712    0.43372794179113   -1.20248629159191
H           2.50846960236504    0.46931562595186    1.24550923006172
O           0.28705875936212   -1.10231552855170    2.03267498796967
H           0.38721741086089    0.55845159580561    1.65958183649087
H          -0.42816795562339   -1.41946529075397    1.44225584261792
H           0.98766468626173   -1.75529265911575    1.98172960357925
O           0.32505181726532    1.74099862967898   -1.10483302305104
H           1.19181483566565    1.33805382604571   -1.51542386255890
H          -0.42709201434570    1.07882654236288   -1.32688826780666
H           0.38441265646017    1.68462662676147   -0.03716052035442
N          -2.36308811324888    1.05282770378922    1.13711178931445
H          -2.55882053629901    0.27415461283414    1.75501352245844
H          -2.26930046455881    0.66000733786316    0.20244438040416
H          -3.17029434758270    1.66366109188603    1.14061708213412
