    26
        -50.44772979  Gyration_radius:  2.51298933477 Dipole_moment: 2.774
 S          -0.54480415292857   -1.96563719006283   -0.55249513519107
O           0.76656893554764   -2.24938919432344   -1.08513766847744
O          -0.62039847142231   -2.25189914234698    0.89080038186918
O          -1.03436262464660   -0.64219674229976   -0.86586358135353
O          -1.54523609626541   -2.98949307856899   -1.22404032541603
H          -1.10674965453400   -3.81295014164152   -1.03856155229171
O           1.58445186240973    1.06725485614368    1.01313710791399
H           2.41950305022113    1.33710615923124    1.39851841331845
O          -1.78803282485561    1.01726716327976    2.71909206050155
H          -1.72895123463232    1.76565247351157    3.31485259021077
O           2.16229340538475    0.00052508268945   -1.20152104024217
H           1.76944045111275   -0.89769452126580   -1.18446105718398
H           1.62469077589961    0.48636653751600   -1.87146108438697
H           1.82739056436826    0.63057628223518    0.11042798228113
O           0.20584711083467   -0.54554819054458    2.43759563134282
H          -0.62771223478270    0.00968091080591    2.66019560258545
H          -0.14745209582766   -1.33504546101869    1.77315150423193
H           0.80346100031698    0.06721128942821    1.87331055617646
O          -1.06112964546818    1.75953031655986    0.32784634807911
H          -1.19428762434462    0.93109372685704   -0.17170272473665
H          -1.67973115187136    1.37388292478202    1.79299794696691
H          -0.10287134785180    1.82176190943125    0.44419829665470
N           0.26311646270347    1.08423929021948   -2.79778542318616
H           0.21406050517086    0.86066529011559   -3.78353111336888
H          -0.09258142736736    2.02426893930903   -2.67520435714155
H          -0.36652353607984    0.45277050077630   -2.30435936936029
