    26
        -50.45567404  Gyration_radius:  2.461238616 Dipole_moment: 5.091
 S          -1.64849678977288    0.48868207005313    0.91117130915335
O          -2.03866586975841    0.27105361467236   -0.56424243552216
O          -0.22521778464888    0.29684510584625    1.04452371479869
O          -2.12373801492056    1.76085297025062    1.36201176111301
O          -2.38090911129376   -0.63664372152887    1.64777723711951
H          -1.97673538182960   -1.50757530774799    1.23492824358597
O           1.38373698265082   -2.10008148279713   -0.63073984325675
H           2.07826343584507   -2.60104585423177   -1.06091765415294
O           1.46714377917607    2.00475070891926   -1.16950949832568
H           1.58899583769601    2.68963252724587   -1.82913381123346
O           2.38152299243231    0.00456098925036    0.59034890075507
H           1.51273399772350    0.13903091010899    1.00663633668308
H           1.83674693432600   -1.38367222285442   -0.10845937901722
H           2.42415755933822    0.70259453178276   -0.07777320164523
O           0.02106128928780   -0.14359189906622   -1.95164196058366
H          -1.21445505015512    0.09659663183795   -1.16349236925225
H           0.56807657664943    0.63794784939494   -1.72079382005460
H           0.46652992902443   -0.90868086158759   -1.53505076130074
O           0.06004655157921    3.18725575329057    0.75452739537282
H           0.54864215572144    3.10457624440663    1.57656507495474
H           0.92342412254513    2.41476011951830   -0.45146660077663
H          -0.80892436903367    2.77615070681185    0.93191467398250
N          -1.32297615272033   -2.63537150376230    0.45092323863743
H          -1.81689197620140   -2.72585915767405   -0.42788059396303
H          -1.35235837163070   -3.52379713102472    0.93393599872565
H          -0.35171329203007   -2.40897158111397    0.24583806420506
