    26
        -50.45567429  Gyration_radius:  2.46112141723 Dipole_moment: 5.081
 S          -0.67557525432547    1.42028407921134    1.14698407139538
O          -0.78154966725336    0.77824114437688   -0.14015052384229
O           0.47491301811007    0.76037178903112    1.93298971295455
O          -0.48275614202925    2.83714668455476    1.09298795802058
O          -1.91776951541452    1.09054482054999    1.97978617249005
H          -1.95299965933473    0.04577191159302    1.97096724745156
O          -0.38666008882416   -2.51649168447945   -0.49623979493495
H          -0.21039909899086   -3.37579773214731   -0.88204375472624
O           2.10425226272088    0.57755362252942   -1.66338729820591
H           3.02212297302661    0.80691388485483   -1.81818076798552
O           1.62081601734841   -0.96750584910013    0.50391919186179
H           1.84582159624632   -0.43719936863439   -0.29067662578745
H           0.96667846386251    0.04267147805927    1.37481790477483
H           0.91561796743763   -1.58267158950600    0.21825875332179
O           0.91720594328946    2.91141651817814   -1.18868373773822
H           0.49268518066284    2.98106933074809   -0.31088160547470
H           1.64359562134068    1.42926813707727   -1.45956171015780
H           0.20384321985731    3.02128070500414   -1.82146833149528
O          -0.33956629648968   -0.64665238892744   -2.34484301226370
H           0.58643814386683   -0.37969965435328   -2.42663557398292
H          -0.45509731422612   -1.87656985493996   -1.25595960661246
H          -0.69913349452607   -0.02682698850179   -1.68704103246137
N          -1.77096717479281   -1.46234334998521    1.90107562198011
H          -2.62329613217717   -1.97522072981445    2.08552151177950
H          -1.07903904007760   -1.72059773919655    2.59317396991447
H          -1.41918156930826   -1.73495717618468    0.98527124972601
