    26
        -50.45567419  Gyration_radius:  2.46112998751 Dipole_moment: 5.091
 S           0.41128238973137    1.38258475938087   -1.30625453676755
O          -0.58013695211433    0.44821740130843   -0.83264417129725
O           1.70295966195125    1.18724259911474   -0.48779521091213
O           0.69818167159528    1.29004306285181   -2.70508994448267
O          -0.02774686505002    2.80658330004155   -0.95323318371043
H          -0.19202025904754    2.76740111289106    0.07836281864701
O          -0.91501185564333   -0.25629569794157    2.41243147095097
H          -1.13487397010828   -0.70960664859771    3.22761496125013
O           0.57934255843821   -2.60242629948430   -0.65474468727776
H           1.19780274253557   -3.30862736837123   -0.84927810609377
O           0.27166015984417   -1.33984685747248   -2.97679682188191
H           0.46680112129595   -2.10121852162771   -1.50053260766197
H          -0.66324021334346   -1.33635065161838   -3.19417428096112
H           0.53388058095940   -0.39820843973407   -2.96434708111710
O          -1.84871245121588   -1.57742734369534    0.33946937780655
H          -1.17270844417401   -2.23249106495260    0.11732106595930
H          -1.38074067472823   -0.74900771689887    1.68316354624663
H          -1.61716751442925   -0.81291140731156   -0.21567022898455
O           1.43081706394088   -0.73847919625812    1.11117904528109
H           0.64054505852577   -0.52378650926895    1.64663828407571
H           1.14983279261931   -1.45474626648089    0.50180151757985
H           1.62504136087281    0.40314917470123    0.18148198835048
N          -0.29082486267778    2.51643366399224    1.57499685979285
H          -0.88262360566662    3.18364763999708    2.05277269260618
H           0.64401304056048    2.57672461357516    1.95847571170038
H          -0.64635254467323    1.57940267186076    1.75485151090092
