    26
        -50.45364692  Gyration_radius:  2.37567080852 Dipole_moment: 2.957
 S           1.44368989975815    0.25837803911813    1.03604354563616
O           1.40660725576167    0.42053642908966   -0.40042268531854
O           0.81905458957649    1.32926486335842    1.77687638981615
O           0.93616095430249   -1.05986013287484    1.42855407199525
O           2.97780206266595    0.26902214296456    1.43163317955216
H           2.95093378418491    0.37042155695012    2.37728260644089
O           1.43867962436986   -1.41801563256429   -2.40183224300191
H           1.96069035362902   -0.86856741545361   -1.79698706320534
O          -1.97822263718398   -0.19445069167804   -0.46854871929778
H          -2.17038062461457   -0.32877229537656    0.49856820874463
O          -0.04503320508294    0.78939845513609   -2.74595270999641
H           0.41196845953720    0.89457693857164   -1.89517986316131
H           0.93257001194433   -0.76535911947996   -2.92529658925502
H          -0.98511165542913    0.75531996563506   -2.55345122039625
O          -0.24409701763363   -1.98691529104832   -0.59046794471220
H           0.41532488511716   -1.84959557391623   -1.38313501244854
H           0.27216596812416   -1.72222409127035    0.25624718258098
H          -1.01359467758803   -1.24390022111515   -0.64222690618382
O          -0.80773834924341    2.18216813317711   -0.11765419599422
H          -0.23000729803109    1.95267604964920    0.64019832673200
H          -0.27745958450390    2.72228303043387   -0.70664071390422
H          -1.58030850930336    0.70421888261499   -0.47374628644361
N          -1.78425563534057   -0.33002123484613    2.16735948381315
H          -2.26240314525031   -0.88242117173143    2.86802150300255
H          -1.77505739012514    0.63282076053507    2.48248234590261
H          -0.81197813963439   -0.63098238586818    2.13827528905973
