    26
        -50.44908813  Gyration_radius:  2.66011562978 Dipole_moment: 6.014
 S           1.35297320932062    1.77460550977018   -1.25436342941789
O           1.72935944708495    2.53928887583186   -0.08855398000374
O           1.86270414437014    0.39378301192711   -1.20259100826843
O          -0.05874814796271    1.77642461366686   -1.56091854492873
O           2.08673492825582    2.46380788989597   -2.48121070730631
H           2.82323984016468    2.88337706175408   -2.04954419696928
O          -1.76512213642857   -0.05596291858029   -2.51432950029403
H          -1.20477315165386    0.71905963005770   -2.68569745655207
O          -0.68140769232913   -0.66313579677748    1.16792960090748
H          -0.72673149885111   -1.42797090828064    1.79198917530486
O          -0.00244315427009   -1.25818444939673   -1.18970596374432
H           0.81497131332761   -0.61022491626984   -1.27386808837464
H          -0.33474746344349   -1.09722065824585   -0.21400998060661
H          -0.75607411470879   -0.85136272636835   -1.81249462597830
O          -2.38174566006854    1.09726960024508   -0.20415081002951
H          -2.31669716721067    0.24585125452015   -1.75399069174907
H          -1.99562832622725    0.53200589445064    0.47928672115303
H          -1.65303504598004    1.65694018328009   -0.51385295723340
O           1.64580290219752    0.49263305258640    1.55047869347081
H           2.20097883874881   -0.03170070031130    0.96387245617609
H           1.64889435854841    1.37842288047292    1.12836173612620
H           0.13670953338089   -0.16023796570820    1.42052882345919
N          -0.62787726012414   -2.75109674628505    2.89224565160349
H           0.11785376471603   -2.55777355704457    3.54955670916905
H          -0.42720629037061   -3.63387213576757    2.43924312334082
H          -1.48798515048738   -2.85472598942708    3.41578925073160
