    26
        -50.45117054  Gyration_radius:  2.66408677553 Dipole_moment: 3.433
 S          -0.27166081148148   -0.98769909187092    0.37234186787844
O           0.21470967384780   -0.23165144300697   -0.87342098167168
O           1.03293383533111   -1.35281829256095    1.07053743420216
O          -1.03773581274863   -0.08765426535707    1.20389346623286
O          -0.96951526797826   -2.17233968427295   -0.03498898902333
O          -3.13253874210563    0.98022868963293   -0.06803953948342
H          -2.40625209091057    0.68156245695234    0.51403986166331
H          -3.85064869287692    0.35626332279549    0.05787316438907
O          -2.76619729861947   -2.12527107404347   -1.98755646703031
H          -2.18332750137462   -2.24717087856568   -1.20923899651843
H          -2.60639158888885   -2.87714444348859   -2.56026455199790
O           2.58061415548552    2.27754238318327    1.53335477223380
H           3.41705115114123    2.46303067284335    1.96322721800942
H           2.78439416284140    1.71505219978056    0.74025368147289
O          -1.77347821437592    0.32725722324670   -2.23876045145027
H          -2.19701908657141   -0.55411064979044   -2.35903723779886
H          -2.33609325595672    0.77911960525128   -1.56375479161039
H          -0.60946355819664    0.04237533686480   -1.50892816694405
O           1.08584811773115    0.48319111133572    2.75280915555843
H           0.15770661892113    0.67025311971435    2.55149734102281
H           1.16166646570915   -0.63535581474589    1.81827886494705
H           1.61797934876671    1.22731207878453    2.36353266823270
N           3.03747231707974    0.52686944576371   -0.45209357902357
H           3.41408858402086   -0.33115142113034   -0.06652753200431
H           3.55681956458360    0.74639176752153   -1.29320233737829
H           2.07903791662848    0.32591766515934   -0.72582588391049
