    26
        -50.44721207  Gyration_radius:  2.5104557161 Dipole_moment: 3.932
 S           1.02565248254082   -1.39201446475416   -1.23676080135584
O          -0.23546649338875   -0.73899719244996   -1.55357574674646
O           2.11158070818215   -0.39784588015135   -1.15780490293772
O           0.95994718013911   -2.24782158667933   -0.08719233537279
O           1.39867077213256   -2.28357092510520   -2.48574510297252
H           1.55817442769234   -1.61415082075316   -3.14251897504654
O           1.12224266469228    3.16432931755886   -0.52540011469894
H           0.89408779166672    3.97196352320387   -0.06250784567464
O          -0.03077054174157    0.72605437639392    2.04754313908538
H           0.04030320398222    0.89919954558707    2.98748756792480
O           2.10777611438743    1.17132691037934    0.72000204308209
H           1.85360532834630    2.03550661750648    0.22931133906635
H           1.28836946033531    0.93513337519841    1.28976994887988
H           2.16141494666536    0.43553526036108   -0.08257640725009
O          -0.80320174394678   -1.66442444083264    1.81120924393372
H          -0.11807158022471   -2.03449184396015    1.21832253123039
H          -0.34680197053882   -0.25427337331893    1.97229938693503
H          -1.61093663661409   -1.61990841831476    1.24239392159036
O          -0.95755162442311    1.59289742304764   -0.47901558373456
H          -0.94431400600500    1.33452629863220    0.45259086579361
H           0.27203495973105    2.65890339781751   -0.65870416025260
H          -0.73658610051708    0.77693497112930   -0.97432459665086
N          -2.66178849970117   -1.39714293821804   -0.12227278939622
H          -3.28140632463580   -0.59937966408430   -0.19224283844175
H          -3.17276331764896   -2.21322698884614   -0.43379197143825
H          -1.89420119960226   -1.24506246810168   -0.77649580577692
