    26
        -50.44908802  Gyration_radius:  2.66010607509 Dipole_moment: 6.001
 S           0.01510993307119   -1.96116036031906    1.64522745075857
O           0.84063237595893   -2.04631162459130    0.42839910676193
O           0.69042784109665   -1.26518438846011    2.71537387038959
O          -1.30205473246479   -1.46293770193400    1.32311578563133
O          -0.17289724746215   -3.45426149402573    2.14934172501539
H           0.52936434905696   -3.52870037858799    2.78659297517634
O          -2.68047375352220   -1.15852341867760   -0.95530432965191
H          -2.51665136552249   -1.68476583468995   -0.15532384319480
O           0.19493458857724    1.41191348010759   -0.48238297688021
H           0.67327686177117    2.04048380107568   -1.07624012542378
O          -0.24171975071073   -0.86587527572884   -1.47992117758981
H          -0.07987934042908    0.11297106400494   -1.15790464868231
H           0.21464100322779   -1.44133932206068   -0.73414368885089
H          -1.28233638294939   -1.02745503387799   -1.37083972569279
O           1.98998907422770    0.36825749478542    1.12602701400301
H           1.54173463309425   -0.08033358496150    1.87479340580339
H           2.30400643846397   -0.36534210344995    0.58711668965250
H           0.85793995661883    1.13412348389400    0.20265034900087
O          -2.36756246814622    0.98678884586036    0.57602580194655
H          -1.55687070379608    1.41213690333116    0.26352075186673
H          -2.84288141058974   -0.25779034407279   -0.58657608213244
H          -2.07151405320546    0.27909948157802    1.16908205481841
N           1.65477025064252    3.05130354667036   -2.06849070801179
H           1.22717587908775    3.95958936423312   -2.19840408492622
H           1.83886891405966    2.65681734488357   -2.98242345940524
H           2.54196909985785    3.18649606497465   -1.59931211038880
