    26
        -50.45364693  Gyration_radius:  2.37558867268 Dipole_moment: 2.956
 S           1.52265665541231   -0.59958129050184   -0.73835245981791
O           0.92442384047682    0.69275515649698   -0.98934845380358
O           2.18998637385521   -0.71404149650366    0.53736886898230
O           0.55414124678548   -1.67790583275788   -0.95877002243028
O           2.63674501789361   -0.78199046745417   -1.84994934363464
H           3.13446825967799   -1.52679875266667   -1.52931602096016
O          -1.19046803009868    1.40661681066826   -2.54117889784323
H          -0.23653856858242    1.23807401883939   -2.50007697044246
O          -1.53329045676081    0.10467149419324    1.34439070914825
H          -1.27700235203295   -0.79924040504959    1.67231649579539
O          -0.81830792256609    2.72719971826258   -0.23695396777845
H          -0.07380024630306    2.10911860257689   -0.32350674293562
H          -1.31997023105862    2.14564966711277   -1.91410754532446
H          -1.31275506042377    2.45856869062202    0.54108739190546
O          -1.70761122733015   -0.58021404023564   -1.05044086972437
H          -1.59931893114253    0.22255400245361   -1.70289416860348
H          -0.82639802026220   -1.10436301421674   -1.09728688857158
H          -1.71412976808059   -0.21482887349293   -0.04366563468062
O           0.86762902667419    1.18104543119592    1.81129135684818
H          -0.71743305037454    0.62360557639274    1.52078720911639
H           1.42492251455965    0.47539010810770    1.42108100020071
H           1.25466452353919    2.01389270531926    1.53487879595832
N          -0.25557319270600   -2.16870234684595    1.79469119910951
H           0.52090967457771   -1.92152740882993    2.39669433515885
H           0.11862512753263   -2.21306924440296    0.84876839894777
H          -0.56657518331100   -3.09687879927545    2.05249218537934
