    26
        -50.45364616  Gyration_radius:  2.37564852788 Dipole_moment: 2.948
 S           1.75479159735838    0.14206013497985    0.35111716469525
O           1.91567577823163   -1.28039608183310    0.54288888286354
O           1.11533842797361    0.51200724361939   -0.89201067446327
O           1.09624588803790    0.78696086200240    1.49111304418926
O           3.21367441313081    0.75662908342009    0.28575484028364
H           3.66107883223552    0.31241210480470    0.99829277134244
O          -1.91879111939983   -0.66247745328425    0.20798805479343
H          -1.68134422365811   -1.00082563819976    1.11303668858464
O          -0.35438237967870    2.70289406645696   -1.56221064718515
H           0.53383782866024    2.32156709895816   -1.49089605396335
O          -1.09964018421888    1.65868906643950    0.62759486996232
H          -0.87129524278740    2.16448084907550   -0.25170521995300
H          -1.52768333718977    0.70776396512499    0.38295288320145
H          -0.19979917114805    1.40193353089980    1.04953844698999
O          -0.03450922821475   -2.08390975228586   -1.04328205613996
H          -1.30519029217291   -1.17257810795972   -0.36632542950356
H           0.30490026378074   -2.02708714368353   -1.93851700031642
H           0.72028687507298   -1.88736386522101   -0.44972417506255
O          -1.04326236926419    0.34469930082104   -2.63551432885521
H          -1.74916003634570   -0.16068797614390   -2.22513322635609
H          -0.80451938266989    2.11840233852336   -2.20437902726514
H          -0.24155842203401    0.18418083633882   -2.11067444784219
N          -0.59732268198673   -1.41154572785389    2.37521925954562
H          -0.84822362177728   -1.46899765665043    3.35423021945429
H           0.10261023799469   -0.67936209146852    2.27173510894420
H          -0.14175844989416   -2.27944900693001    2.11891007207454
