    26
        -50.44195661  Gyration_radius:  2.44549026411 Dipole_moment: 4.533
 S           0.33637758185388   -1.17928595050851   -1.47070630290392
O           1.42829163484211   -0.18868499474182   -1.42204654457407
O           0.81622360633222   -2.50421642539928   -1.15019307737577
O          -0.79542096459606   -0.76911769580902   -0.67526841864495
O          -0.13967579348142   -1.22224155427568   -2.97297393300302
H           0.57269769076940   -1.66338921991974   -3.42534436945116
O          -0.28995956080591    2.68958568862602    0.73716996616330
H          -0.32831086703448    3.38686588032317    1.39340004217101
O           0.56114606844041   -0.70496444842213    2.41513191854810
H           1.16150346581175   -1.01222500069022    3.09686633211645
O           1.58550799267111    0.95987046443637    0.72904664466736
H           1.55363475626664    0.46347679979965   -0.25331265784169
H           0.90820731877181    1.72919172764889    0.68476401719988
H           1.21376653788562    0.29163461696541    1.39780979151040
O          -0.29938092379013   -2.80827745872684    1.18558813457491
H          -1.21242116535119   -2.64005763029686    0.93756360934036
H           0.18997807101129   -2.82640806769108    0.32966384858338
H           0.23538543411470   -1.53283875271270    1.94277866540033
O          -1.74462501711024    0.63682631718080    1.40138610457140
H          -1.59648344503813    0.13156596250142    0.58042019116375
H          -1.20394198297980    0.19406174480130    2.06703136606566
H          -0.99061964737115    2.01779057327053    0.97366092770268
N          -0.61426836430933    1.77757284851856   -2.34038852554425
H          -0.61861306545880    2.32640588440869   -1.48818555167444
H           0.35129615605414    1.54473506167294   -2.53793658281143
H          -1.08029552749183    0.90212361903184   -2.13592560595640
