    26
        -50.45364683  Gyration_radius:  2.37571812539 Dipole_moment: 2.955
 S          -0.55447537748204    1.64957937917001    0.44347496932661
O          -0.33190813294113    1.43284033955702    1.85397308847013
O           0.58268509687386    1.34787550982184   -0.39729745632160
O          -1.75973241386111    0.96979279309262   -0.04080121446663
O          -0.82608320263081    3.19976105238684    0.26144607527436
H          -1.42563069104941    3.39383576587276    0.97429998706035
O           0.71932479432868    0.57617876829869   -3.00050129044035
H           0.67429079154271    1.31752465902525   -2.37724834714615
O           0.19431194520423   -2.02840023627399    0.13752163448111
H          -0.58941776183238   -2.03984007993729    0.75050610155849
O          -0.97395234655625   -0.77215392401133   -1.67685307974404
H          -0.31156569348649   -0.27873847237443   -2.30908330154437
H          -0.41691252993029   -1.36260247119595   -0.97812516074248
H          -1.39048525636671   -0.04703533818370   -1.08157451599857
O           1.61182118028211   -0.33960007026419    1.64677047319341
H           0.91235708339690    0.32296059261077    1.82736290671642
H           0.82843662883052   -1.46065679409724    0.62920205674517
H           2.41130026848698    0.15671492978597    1.46135093154453
O           2.51035508226960   -0.44923590477918   -1.28803579660979
H           2.34682509023504   -1.31448950967541   -0.90515349411288
H           1.54920774849738    0.12070860059744   -2.75539147326450
H           1.97787423517192    0.18666427499196   -0.78214139399304
N          -1.77848283120032   -1.32286628930748    1.75465874138364
H          -1.96736841464857   -0.46306908742048    1.24301128490418
H          -1.32676918365704   -1.04680537291175    2.61852327112242
H          -2.66600609961524   -1.74894310482140    1.99010501257601
