    26
        -50.44195666  Gyration_radius:  2.44541987688 Dipole_moment: 4.533
 S          -0.12806104581666   -0.63252970642938   -1.80278970128296
O           0.64358508056201    0.07361601788243   -2.79998271789200
O           0.71359882950574   -1.57907561026932   -1.04679280956393
O          -0.87275796518092    0.23992753536907   -0.92746350094139
O          -1.17508462442067   -1.51561707807953   -2.58334310871876
H          -0.65737393581034   -1.93610273351400   -3.26296690812296
O           1.62213836722511    1.90460402611682    0.62095503098867
H           2.49269399531483    2.30474631860667    0.66132118375486
O          -0.37467709794323   -0.70346768336978    2.68785038769929
H          -0.24406497235199   -0.55725066367060    3.62587716428433
O           1.57231279159694   -0.64199378174056    1.04021689642761
H           0.82668992694569   -0.77327364411916    1.73256689735335
H           1.21142977520732   -1.10169632163843    0.10705084331301
H           1.62417677613921    0.35714445576480    0.86382899354469
O          -1.07553874157811    1.47259494388121    1.44520778723704
H          -1.20641475371710    1.05850490462226    0.57192072549288
H          -0.79696161332385    0.12081319061697    2.31300970400397
H          -0.24390496083815    1.95640324952795    1.36903573364926
O           0.66888654494594    2.44512114842787   -1.71897192169962
H           0.75196553455223    1.60735767089607   -2.23237714816283
H          -0.27817399383128    2.57319245035363   -1.61848999770583
H           1.26324082060298    2.12026870276759   -0.29520913199851
N          -1.80688251391893   -2.37502886234558    0.32952485241160
H          -0.98862011770865   -2.82287286200578   -0.06480706668737
H          -1.54129632166785   -2.02252527639135    1.24204335231856
H          -2.00090578449165   -1.57286040125741   -0.25721555970308
