    26
        -50.44195662  Gyration_radius:  2.44547824803 Dipole_moment: 4.536
 S          -1.83596967672443   -0.07453777210770   -0.53952254219332
O          -1.79664669797640    0.01637230904306    0.93222682788787
O          -2.39511446092146    1.12309574511495   -1.12380780053390
O          -0.55190252382426   -0.43737279530416   -1.08865793771655
O          -2.83449395805464   -1.24830068851303   -0.87217223144363
H          -3.68910738592678   -0.88906071966721   -0.65463103637794
O           1.93730275184934   -1.18854983329475    1.64220515449248
H           2.78875912083373   -1.18722942558553    2.08193007782705
O           1.33383556758009    2.20065475297988   -0.15009880321638
H           1.47635936962744    3.12770050470828    0.04958073477089
O           0.35219945358175    0.80538962142423    1.78723509647126
H           0.95426984741482   -0.02379711522439    1.83675246963308
H           0.72353078412608    1.38243543765192    1.03813309215192
H          -0.63274858634487    0.45175864589924    1.44503506227508
O          -0.23954206477738    2.11944681052601   -2.19803300877651
H           0.02430059491933    1.36410148036750   -2.73028122213173
H          -1.12267826857402    1.87078243279650   -1.83664377473663
H           0.71821623671710    2.18310231547188   -0.94720050563888
O           2.11856356732082   -0.45290799077175   -0.84708646313331
H           1.18082785739922   -0.60112052694787   -1.07051921748624
H           2.21077374610319    0.50572224481650   -0.78381143142847
H           2.10525093671028   -1.06095591537650    0.66560402000080
N          -0.75880811367962   -2.77612161455007    0.85474209605380
H          -1.42334743768464   -2.23275262101156    1.39197706816902
H          -0.80740359468053   -2.42505906617141   -0.09380342537135
H           0.16357294498635   -2.55279619627580    1.21084769044707
