    26
        -50.44195663  Gyration_radius:  2.445437049 Dipole_moment: 4.534
 S          -0.72235983691171   -1.66191145953729    0.61902791191827
O          -0.78988543310604   -1.65668355900135   -0.85451611845783
O           0.22041715030606   -2.64742200553533    1.09686942675414
O          -0.49171314392474   -0.34013675901114    1.14978492206499
O          -2.14674672474155   -2.12187557215579    1.11396763821573
H          -2.17622684285817   -3.04809367714875    0.89490794866841
O          -0.51755429378433    2.25400075150466   -1.58489688283842
H          -0.23439236193116    3.03835709791514   -2.05707738281089
O           2.54795002954088    0.36488549992288   -0.13745815042302
H           3.42812049065955    0.13327846319639   -0.43954532427958
O           2.09247204214379   -1.05827403168645    1.97042315825488
H           1.56543673149972   -0.52156840068828    2.56844490826277
H           1.48008259412937   -1.77199778862368    1.67393336720873
H           2.38211763335166   -0.19749070273288    0.68162327581715
O           0.50736191432666    2.12397639307787    0.80325083044934
H          -0.22480034843045    2.35510922150784   -0.63499539587593
H           0.03186306420259    1.31830449278212    1.07897640264375
H           1.41235187567652    1.83363916596270    0.63538751634986
O           0.67114015746648    0.01523036274011   -1.87494453071543
H           0.14200010401105    0.89406924584378   -1.86106969843209
H           1.42794712544193    0.12811387911709   -1.20669961995730
H           0.00315453094376   -0.75400402303023   -1.45743131786492
N          -2.92964266613400    0.39121598424621   -0.52711983436410
H          -2.40644040249420    1.15422427834232   -0.94135653498455
H          -2.75072897681494   -0.43105405260962   -1.09061770850384
H          -2.52192442256330    0.20610717559533    0.38113118289297
