    26
        -50.44195662  Gyration_radius:  2.44548425573 Dipole_moment: 4.534
 S          -0.07443189762141    0.69397214583556    1.78327386553863
O           0.58470622806708    1.70044143713498    0.92973267778248
O          -1.35934219848102    1.16298826545492    2.24966384284303
O          -0.13124454306251   -0.59779195274955    1.14289240491013
O           0.84133878239572    0.54358222418392    3.05758162892660
H           0.70289947946942    1.35576287193898    3.53499349996279
O          -2.06708653363536    0.08170778746649   -1.53791191657291
H          -2.77513305821480    0.54215204072634   -1.99211906007223
O           1.70955437660008   -0.57258343315771   -2.14734392488063
H           1.86790602700658   -0.78165321424908   -3.06904607976388
O          -2.91381695300230   -0.39720306296237    0.85593183287083
H          -2.40844915364029   -0.09656037347566   -0.60719432148465
H          -2.55032252673694   -1.24589556021642    1.12246776813627
H          -2.45393979001229    0.25977190543060    1.42977210462528
O          -0.18983736636839   -2.02773473672410   -1.12484784619396
H          -0.10676196527613   -1.68694322551103   -0.21480755925358
H          -0.99010407690669   -1.61555314294935   -1.47288677244045
H           1.09602012202567   -1.27219428067553   -1.78348439948694
O           0.18053389194958    1.34865216899486   -1.45434241435505
H           0.87582810196826    0.65735977076469   -1.75628765991823
H          -0.72020551941309    0.88026981067502   -1.48948338972652
H           0.38397014943906    1.54690571574533   -0.39047614107242
N           2.87576169952749   -0.20347726107519    0.83778280083791
H           2.72716540639456    0.79275499651883    0.94297002888112
H           2.09917759477310   -0.65622041893542    1.30401631231365
H           2.79581371274748   -0.41251047819143   -0.15084728241894
