    26
        -50.44195666  Gyration_radius:  2.4454267479 Dipole_moment: 4.532
 S           0.06324975270811   -1.40004433569865    1.30482283254304
O           1.21616885705722   -1.43098450097583    2.17562423219185
O          -0.92207198600496   -0.39994196184073    1.75739769081866
O           0.39881721196625   -1.22989820419757   -0.08816542724707
O          -0.64773051384570   -2.79997385775380    1.44637886478270
H          -0.68522295154818   -2.94281771411576    2.38706883735778
O           1.80666901077348    1.83775697779966   -0.05618786498426
H           2.31712167301279    2.54476095677016    0.34280066293395
O          -1.69913895735238    1.46756587489180   -1.67898279222670
H          -1.88684511453592    2.21873675447886   -2.24364787931721
O           2.98423973427523   -0.37253383860431    0.57968168442178
H           2.27401170093998    0.98323136196414    0.20076845945252
H           2.42506180958759   -0.76945489761200    1.28830338221140
H           2.88905788066695   -0.97124650725922   -0.16590944802579
O          -0.67764417333034    1.75969673496806    0.64059070931518
H          -1.18963700050492    1.67560063166678   -0.24446505648001
H          -0.81974682884031    0.80549022557655    1.17130207254891
H           0.30737978076878    1.80562226159208    0.39625406114191
O           0.61189659925265    0.39612546798098   -2.20977365881776
H           0.53166105837343   -0.34561393902422   -1.58160594884387
H          -0.88794499991639    1.01374618435860   -2.04542850335955
H           1.23423101308664    1.00667239074859   -1.79575997687569
N          -2.61931555667751   -1.38470734422487   -0.48543341395827
H          -1.70815175131156   -1.82074304832420   -0.55667252240937
H          -2.73129900802352   -1.11998421446571    0.48564923491250
H          -2.58481725057138   -0.52706144869848   -1.02461024208418
