    26
        -50.44195661  Gyration_radius:  2.44545532842 Dipole_moment: 4.533
 S           1.25364560392123   -0.77772364517571   -1.22079105119125
O           2.22124814271471    0.11244671278932   -1.82054483369168
O           1.65343479975422   -1.15911115347294    0.14694223214509
O          -0.09713079140382   -0.27214542781064   -1.26314139494294
O           1.28065055594385   -2.10913078498176   -2.06462657798920
H           2.20856340604508   -2.30243909237935   -2.15599545865469
O           0.17076092032179    2.48404605059751    0.66674495828735
H           0.63844132490169    3.24179567881654    1.02268470973985
O          -1.76870994353042   -0.55511801424211    2.10320377852007
H          -2.32029986361180   -0.28285456195668    2.83802854799261
O           0.64133949545687    0.24865813035574    1.86887714160370
H           0.48719265385376    1.13952408223652    1.40556804993492
H          -0.28809889076708   -0.14888174121060    2.04388420967859
H           1.12243616105415   -0.40619214904617    1.12595280584638
O           0.82790376280008    2.31515774636855   -1.82643319963860
H           1.46924094076972    1.56771622943231   -1.87538308452780
H           0.05543561042714    2.00156158701025   -2.30436344200250
H           0.43701201785488    2.42802112535255   -0.30312379043689
O          -2.13122103068562    0.93431927896116    0.00060779756841
H          -2.07808108588183   -0.05450326442875    1.29580006368864
H          -1.64179999986209    1.73756910853728    0.21680606417044
H          -1.53988734007830    0.43061423843785   -0.58915028442132
N          -0.76463334379667   -2.90049882191113    0.12899120090659
H          -1.26775388358948   -2.38567437899851    0.84267620001962
H          -0.77148276268614   -2.33418004543063   -0.71045354664414
H           0.20179353007328   -2.95297689784984    0.42723890404137
