    26
        -50.44721165  Gyration_radius:  2.5103551941 Dipole_moment: 3.933
 S          -1.44944265464598    0.10153374582168   -1.55294322035950
O          -1.13617585278181    1.54196617855968   -1.51917747964955
O          -0.22351572813981   -0.68193168715642   -1.57502323893792
O          -2.37201998078706   -0.29934681585092   -0.52999385551425
O          -2.14998858057390   -0.11534600281662   -2.95152690024659
H          -1.53265312644644    0.31939591587624   -3.53011783145323
O           2.27561691365928    2.50522152999411   -0.28227205178297
H           2.98875171212234    2.74786687000621    0.31018137013773
O           0.24074291831541    0.48654138008427    2.10356311646171
H           0.17179408321851    0.70411667543765    3.03438164392894
O           1.91613775979044   -0.07056925301636   -0.10417858394158
H           1.50897717474325   -0.11752981084833    0.77151778615989
H           1.20571125355734   -0.32137122753015   -0.73053936626626
H           2.27549963266864    1.50877425099351   -0.34001875956147
O          -1.38840300181742   -1.39340491892623    1.68085064939432
H          -0.85315997207303   -2.10930341003612    1.25799096243184
H          -0.43210420778911   -0.28197259497169    1.95095902460034
H          -1.92043678316552   -1.03024219262880    0.94397296116475
O          -0.14247479859734    2.45724218193725    0.52124156420318
H          -0.64722535586779    2.07858740203649   -0.36769623960275
H          -0.06329463234756    1.67392051834281    1.17848965037151
H           0.81378478922551    2.63047373388418    0.19321153519476
N           0.10600524526657   -3.00379381761378    0.11885049506665
H           1.10007360441931   -3.14090851451705    0.25379521903408
H          -0.00828993503724   -2.31312132950401   -0.62286221924435
H          -0.28391047691251   -3.87679880755554   -0.21265623158933
