    26
        -50.44772977  Gyration_radius:  2.51297811915 Dipole_moment: 2.774
 S          -1.14308225463530   -1.39937814401574   -1.09573015835800
O          -0.11903023092564   -1.54625158119152   -2.10254917576169
O          -0.93141720551355   -2.31971329501918    0.03516538383499
O          -1.34289718226250   -0.03807373070949   -0.65269127022756
O          -2.50363758275274   -1.86645309866093   -1.75212877207184
H          -2.25656534243885   -2.72440578965462   -2.08017612347653
O           2.00172344823602    0.27854935490336    0.76902123367779
H           2.94612403783294    0.23880870483779    0.92774512061408
O          -0.74728100880333   -0.18408168423941    3.32159973309271
H          -0.35601998762407    0.18443841563516    4.11507367292142
O           1.72801200369410    0.31961748086310   -1.74096396620779
H           1.18334853957722    1.12070029434748   -1.92932168492328
H           1.89652189575439    0.29274939986938   -0.25727145321065
H           1.13718947084475   -0.43011194377725   -1.96513417460752
O           0.65354018745166   -1.64620152957384    1.77330119312099
H          -0.04010644872117   -1.98518241692715    1.00290657626005
H           1.22911355047812   -0.91241863945490    1.34748438966415
H           0.06884643228989   -1.17015828371922    2.46910444960320
O          -0.46662722101325    1.50686542009223    1.35711389781851
H           0.47435055712328    1.39791345111817    1.16127353363481
H          -0.92368780084983    1.03144697224766    0.63693778090830
H          -0.78324138220552    0.55092359766717    2.64703348195004
N          -0.16697675997726    2.23376282369420   -2.01370430583449
H          -0.79462057274184    1.52058958891988   -1.64474844730114
H          -0.51180197321039    2.50642655504554   -2.92519628039167
H          -0.23177718606000    3.03963806880571   -1.40414462443726
