    26
        -50.46212474  Gyration_radius:  2.51210969824 Dipole_moment: 6.143
 S           1.03162974037076   -0.76785736260508   -0.05305668646949
O           2.06512227075730   -1.31070426618035   -1.06650786620942
O           1.30310009786248   -1.35142795425941    1.23135058668073
O           1.12337942510981    0.69590896085772   -0.04769782757173
O          -0.30237464618652   -1.16186212868208   -0.55598379795187
O          -1.81381364752977   -2.06826563291231    1.46422998555875
H          -1.60112761964711   -2.94059105748340    1.79921685903899
H          -1.17252246026491   -1.89919237192992    0.74230184445742
O           1.93737538839323    2.12477997304601   -2.08829231418535
H           1.73426631851190    1.63545741241065   -1.25755622253405
H           1.42367424727497    2.93298069966067   -2.05089800842480
O          -0.61001315697558    1.82347050854447    1.57549428462193
H           0.16116153546586    1.58950362762908    1.01078617550285
H          -1.63445789502605    1.14632182614371    0.77236981210139
O           1.45820731352997   -0.16615432981373   -3.33855796542045
H           1.60987188740984    0.75365420154108   -3.02034506590197
H           2.18502187018562   -0.36700122728788   -3.93222798993856
H           1.77011055433435   -0.93881756693385   -1.93586027685977
O          -0.34507601145317   -0.32076842879291    3.06350512097594
H          -0.52500311101139    1.19441062370170    2.33735970751204
H          -1.06302341485645   -0.91171109394738    2.78869182583519
H           0.42945771637001   -0.66550276689079    2.57623530614404
N          -2.20125634579723    0.43788485827108    0.13607667955666
H          -1.43463891008328   -0.17046215451779   -0.30782188756287
H          -2.77541052791338    0.89493551092056   -0.56303983374066
H          -2.75366060883842   -0.18898987048386    0.72022754479387
