    26
        -50.44721162  Gyration_radius:  2.51034735985 Dipole_moment: 3.933
 S          -1.17568286334411   -0.14450072098095   -1.76628743574049
O          -0.34297317519826    0.98866385780419   -2.20974704362619
O          -0.34112720941376   -1.19530173516838   -1.20366716421438
O          -2.25871871314683    0.25126563960563   -0.91265443559624
O          -1.79380241145641   -0.72295753677254   -3.09937736472628
H          -1.01426522577058   -0.80078072158434   -3.63896187453584
O           3.07095984353380    1.28362956126832   -0.67407357473110
H           3.77411332330199    1.52678671819121   -0.06999721387948
O           0.24138180144863    1.25722973507149    1.75522125900050
H           0.18728758342271    1.86986396278470    2.49025608482287
O           1.74764420819209   -0.69976424801328    0.37968029675502
H           1.28573773356044   -0.22928980440482    1.08688696803704
H           1.04677243692818   -0.96515215577174   -0.25142503617589
H           2.69707987114050    0.41771796314132   -0.34739099863844
O          -1.94084360921886   -0.00888118309949    1.71100255261109
H          -2.23555132407523    0.13988595654662    0.78961488427519
H          -1.68603422926590   -0.96416306517812    1.72832043477183
H          -0.65860209165674    0.75062343407336    1.75360042867438
O           0.76098051368107    2.34577878927070   -0.49857722996024
H           1.73387231330171    2.05126582008759   -0.63566389727809
H           0.22152911518965    1.79377791962348   -1.26843422165113
H           0.48478674937882    1.94821358352257    0.40554925974625
N          -1.05207869182739   -2.51538608222292    1.27036886995524
H          -0.19845733711177   -2.88056464435334    1.67432153361047
H          -0.83696108927459   -2.22183533692196    0.31758242302579
H          -1.71704753232029   -3.27612570652150    1.21385248547057
