    26
        -50.45381438  Gyration_radius:  2.64800464147 Dipole_moment: 1.726
 S          -0.49544282802477   -0.00218247285472   -0.63119808277202
O           0.12387114083582   -0.72017431738874   -1.82413936001781
O           0.55366483383111    0.66132873146022    0.12385388348565
O          -1.40046198451549    1.04529190613668   -1.25848423219433
O          -1.26870070755224   -0.93983460136665    0.13402852215737
O          -0.38144256586169    2.51327008986457    1.81816035131144
H           0.13903199254732    3.30730898572435    1.68269947600198
H           0.03999549116076    1.81009535867362    1.28618356613213
O          -3.49269874694873   -0.18536351001768    1.42078485574669
H          -2.67554089242546   -0.57680479395518    1.05464134364384
H          -4.22224834499182   -0.63089260136480    0.98619249081600
O           3.45933124806478   -1.85902883473007   -1.12083464431990
H           2.77495033222095   -2.01642857742457   -0.42015859644858
H           3.34926067376905   -2.55628950874390   -1.76939578820621
O          -2.68796988443359    2.18243095354167    0.52969754783710
H          -3.13354249882731    1.41509424623848    0.96092602288638
H          -1.95494313884282    2.43917373668528    1.13449603376351
H          -1.99288658225995    1.57852496692574   -0.53495247295564
O           2.35884867334661    0.38964300223470   -1.93604479250777
H           2.17330602498297    0.84685729790100   -1.10547897342601
H           2.92867214937947   -0.38921894341463   -1.69536804283611
H           1.03638777760760   -0.26201808782864   -2.02125761128476
N           1.42246170915493   -2.06348244097856    0.63550230450127
H           0.56148027022581   -2.36304498335107    0.19156003491358
H           1.29161316316933   -1.07681650383997    0.83562265781409
H           1.49300264439807   -2.54743908812865    1.52296350596105
