    26
        -50.44195621  Gyration_radius:  2.44513662646 Dipole_moment: 4.529
 S           0.43136976341831   -0.42001372010373   -1.81725253177282
O           1.49817950746386    0.33821586167201   -2.43002680112002
O           0.75933767755977   -0.91470658432566   -0.50218840522389
O          -0.83311125314853    0.33935649862510   -1.81729724183968
O           0.18140494864190   -1.67449087322722   -2.73890617905152
H           0.14462561651132   -1.30893953685742   -3.61741731340340
O           1.14981373559007    1.96195154723210    1.21243946197515
H           1.39637084289385    2.88484632658155    1.29647224484152
O          -1.98847487112229   -0.19230833137030    1.96663725409602
H          -2.37317260441575    0.06189764785903    2.80670829232311
O           2.92269783148384    0.86115457767601   -0.31118057780865
H           1.84594838267630    1.54517700023158    0.61544997646784
H           3.05445348827019   -0.03635624414833    0.00578121657999
H           2.48146244506308    0.75207702077518   -1.18635862620211
O           0.56286846190661   -0.66527751099184    2.15981213869365
H          -1.06035982325684   -0.51465859848452    2.14835359756914
H           0.68551615808962   -0.95227761641792    1.23576072894049
H           0.94557011215723    0.21987073142867    2.19829029048679
O          -1.21766680544319    1.55042904965415    0.27028524736540
H          -1.63623158025764    0.87144311264563    0.91566961253097
H          -0.28478856770042    1.74181383899932    0.62443992549680
H          -1.08246497699737    1.02518110431618   -0.68711821846824
N          -2.04035270575325   -2.11057800231673   -0.62684769747451
H          -1.03871019781249   -2.25165587713310   -0.67434213475423
H          -2.24352880286810   -1.70124653215842    0.27790541885816
H          -2.26075678295644   -1.41090488016356   -1.32506966910267
