    26
        -50.44721166  Gyration_radius:  2.51034823212 Dipole_moment: 3.932
 S          -1.51852378737742   -0.86488094719712    1.21206377872497
O          -2.15867593553938   -1.14416938912489   -0.08652052714125
O          -0.11852998868650   -1.26015570448685    1.18079713614649
O          -1.72842587525032    0.47946549433644    1.66700887594929
O          -2.24093810667045   -1.83881821039402    2.22365207529848
H          -2.17786763442903   -2.66356439627084    1.75387042525700
O           0.37528831953077    1.76081078848407   -1.21617183484717
H           0.40755362372506    2.60796077744622   -1.66317213553833
O           0.11133251337943   -1.47022093004471   -3.05941403018453
H           0.63861072300543   -1.23919272601540   -3.82560355524259
O          -1.49401681735230    0.21016865262385   -2.01330329727086
H          -0.95625698828728   -0.48383854498799   -2.54362127612867
H          -1.85008244087578   -0.35455310831045   -1.15149403988737
H          -0.79952742437214    0.88076571004360   -1.66716098546334
O           0.20229493758553    2.25495630181711    1.25217282864661
H          -0.59426411033911    1.74285323671594    1.49953101727174
H           0.94624503771379    1.75443794467086    1.66908704668249
H           0.30447883968504    1.98395332292205   -0.21028319399199
O           1.46342026937237   -0.83193177317316   -0.92391718715192
H           1.39039383501984    0.13118585301486   -0.96732683412971
H           0.93526930968244   -1.09366742109546   -0.14132102543483
H           0.70945841883318   -1.39296227546481   -2.26411170249769
N           1.95178102971316    0.45900410194376    2.24226450225266
H           1.26791576827672   -0.26285731840595    2.01538690130570
H           2.11614914128666    0.42255570385186    3.24011804814706
H           2.81691732238300    0.21269485711454    1.77746896922864
