    26
        -50.44195692  Gyration_radius:  2.44529478534 Dipole_moment: 4.528
 S          -1.50230935881627   -0.79039253716301    0.88657143744323
O          -0.27640286888466   -1.28179798203024    1.54390996735471
O          -2.26260286058380    0.06473625356808    1.76920240728270
O          -1.22041809704601   -0.18926097243322   -0.39442131460606
O          -2.38719900665625   -2.06711457741614    0.61833325044796
H          -2.67548009802875   -2.33260213037704    1.48616016323912
O           2.42160930246781   -0.55218974062627   -1.29941389687859
H           3.27209461976937   -0.28452412349667   -1.65063000499896
O           0.71404644064907    2.42229683928281    0.51520326657797
H           0.98782301227571    3.12315805871142    1.10972947637246
O           1.68449271095322    0.09226840920241    1.05688007257890
H           0.82588630812581   -0.55091324421633    1.30677181202372
H           2.04751096752453   -0.24851346447505    0.16004243840826
H           1.30518309724925    1.01733454890495    0.87704923972689
O          -1.86781789327645    2.35593552938297    0.59128970132942
H          -2.17386802426127    2.12516946069316   -0.28987952922901
H          -2.08932380181594    1.56959324548037    1.14356406480685
H          -0.29229830913318    2.40575167447079    0.55572731335154
O           0.51761333423342    1.07957140938891   -1.99474211871812
H          -0.21074459432201    0.57160726015846   -1.59148205129926
H           0.65187348848073    1.83232065384499   -1.40582278275460
H           1.72562043254553    0.01516599295861   -1.73750914987296
N           0.17343367884612   -2.84000291205343   -0.95535573318575
H          -0.61718373304988   -2.22416907937597   -1.10137329882272
H           1.00396254022585   -2.33644952906592   -1.24540406211974
H           0.24449874252241   -2.97697905330538    0.04559933160686
