    26
        -50.44195698  Gyration_radius:  2.44541568378 Dipole_moment: 4.530
 S           0.24319223938019   -1.58014701622299   -1.05471567168360
O           0.11114777277466   -0.43455136605908   -1.97477829737040
O           1.57630867083796   -2.13618182750949   -1.09888419466946
O          -0.19874553242821   -1.25114615276313    0.27880236013213
O          -0.72990311831593   -2.69005911947417   -1.60806776411014
H          -0.30913719551415   -2.98460039301716   -2.40989128284383
O          -1.65376372606362    2.22538031165935    0.41368729343249
H          -1.82484163036309    3.09406068260829    0.78037240309013
O           2.00732382659477    1.15791422218502    1.12818567054421
H           2.86896759512216    1.57859633076851    1.11344956853390
O           2.43050476350020   -1.38813966326064    1.24702899944893
H           1.73315178941908   -1.76860700751665    1.78770591497632
H           2.24836303944851   -1.72291758728284    0.33752913863024
H           2.18624799758302    0.16756693102282    1.17228329512668
O          -0.59570755695969    0.61547451724643    2.16292795407975
H          -1.40904947836130    1.62361615108068    1.17278563766807
H          -0.58726572755774   -0.17401166973025    1.59038946708456
H           0.32350299328701    0.90763673751061    2.19740975854998
O           0.48582070436917    1.71791085231078   -0.88065470336073
H           0.31510534597228    0.76950811557937   -1.41434623029613
H          -0.41238876069378    1.97509976742315   -0.45719405061282
H           1.11211214976061    1.50299672252993   -0.11024076850511
N          -2.74945114243795   -0.37910198743776   -1.14343839347343
H          -2.20947439463018   -0.29041075661213   -1.99562292391184
H          -2.25886981476039   -1.05111031978539   -0.56619266152177
H          -2.70315079996824    0.51522352474725   -0.66853050892660
