    26
        -50.44195641  Gyration_radius:  2.44521252323 Dipole_moment: 4.527
 S           0.21443937110451   -1.41828656487558   -1.26880273064167
O           1.52952735642136   -2.00825735729979   -1.37161038452434
O          -0.52339376028219   -1.95569208748921   -0.10981797904300
O           0.22953996359501    0.02447420986804   -1.27379052379505
O          -0.59185791718192   -1.88001822431752   -2.54222121985158
H          -0.45018725221622   -2.82106176729513   -2.57504646472703
O           1.93572351467617    0.67496217522713    1.56103520665605
H           2.60010422453463    0.48496655490642    2.22598646942868
O          -1.87135307392329    1.42637844299016    1.52230899400571
H          -2.09936265614667    2.02086007846792    2.23853844593981
O           2.97878882789721    0.05806494939435   -0.72105418765242
H           2.64459449006504    0.68523159300343   -1.36790649687643
H           2.35316951655756    0.42902826355623    0.67796229165516
H           2.56138802332780   -0.79996530436407   -0.97002147361328
O          -0.30890911576071   -0.55831077896259    1.88325716162996
H          -0.42795963844104   -1.21945401298585    1.01062966517968
H           0.59033194279476   -0.09863263160583    1.77230634123837
H          -1.01993614777614    0.17510700905599    1.78836853778255
O           0.11745099806360    2.32258659452730    0.10356528004412
H           0.88316772754152    2.13362220514443    0.65981263641881
H           0.10538319346975    1.60709719736327   -0.55908397182043
H          -1.22429362958784    1.90594374763498    0.93106724245386
N          -2.79693234237775   -0.27650230050740   -1.05474745135454
H          -2.65335071008100   -1.20828551476029   -0.68486986603251
H          -2.79809608786733    0.35909238010632   -0.26514806811924
H          -1.97797678844094   -0.06294883680653   -1.61071747438680
