    26
        -50.44195690  Gyration_radius:  2.44533308361 Dipole_moment: 4.527
 S          -1.74081585401313    0.65380689103014    0.45788384775602
O          -1.92567386231751    2.08683884346355    0.43691116659296
O          -1.81169742777844    0.08602467987077   -0.90193138579895
O          -0.54581989342488    0.23818585716251    1.15138720334557
O          -2.96865662707094    0.04926631037781    1.24008650958079
H          -3.72349511642081    0.47511747714320    0.84565646731876
O           1.42366775611960   -2.24422990136336   -0.89156221933586
H           2.20605058329108   -2.65658383593716   -1.26056471579533
O           1.85127682780720    1.61146373989890   -0.78650317466173
H           2.20300676511885    2.28760741857899   -1.36851531697616
O           2.00345471566958   -0.58543681281642    1.02774072284537
H           1.08214643814744   -0.36911064306439    1.26339741800876
H           1.70402098111076   -1.75787265345019   -0.06509006651898
H           2.32761174508115    0.19010521474887    0.55347235152843
O           0.49598423370579    2.84014373022103    1.03840925613927
H           0.60622614494821    2.34771193360640    1.85617132972564
H           1.32447306085585    2.10264090707309   -0.08237158652884
H          -0.44927456896101    2.70350035850705    0.79320718610414
O           0.38268132284567   -0.16698983818205   -1.94628114550340
H           0.75051728041062   -1.06292732882784   -1.60829061933633
H          -0.62609657134484   -0.06504583266825   -1.51545252601082
H           0.95160489772784    0.55516045189657   -1.51410701407593
N          -1.50302956918632   -2.56287901690473    0.42724459607420
H          -0.58906752011364   -2.76958805895208    0.04063739471377
H          -1.37722733199497   -1.83912797044110    1.12437316462549
H          -2.05186840023720   -2.14778191097075   -0.31590885381823
