    26
        -50.44195654  Gyration_radius:  2.4452071949 Dipole_moment: 4.531
 S          -0.53620169562119   -0.63004513070908   -1.72719523572107
O           0.49454731927706   -0.72658809169023   -2.73532718525417
O          -0.50058353440210   -1.78793756686721   -0.81374584384108
O          -0.52254387212728    0.62119113835352   -1.00875870341010
O          -1.91828325906920   -0.71960166394532   -2.48015524418366
H          -1.82125792146989   -1.47724973849686   -3.04870979233614
O           2.47979054682582    0.46998138366816    0.52052192950642
H           3.40213563394357    0.21398619155221    0.57868298371699
O          -0.69559876506715    0.06464297816155    2.71381371885689
H          -0.48280460102190    0.21247734151465    3.63644361227790
O           0.16162656691710    1.99294776932269    1.19131376514337
H          -0.48873612086426    0.90872445698579    2.22086786841225
H           1.10696944260557    1.81107481795626    1.12265625265994
H          -0.22102358744182    1.65087703295796    0.36199340958220
O           0.79636340667232   -1.36028470052576    1.21267468511780
H           0.20766956648764   -1.59701480943489    0.31280484470813
H           1.48093043980629   -0.66435454889791    0.93092763596297
H           0.15585314627242   -0.88745408004230    1.85981968412310
O           2.06605242410533    1.18889642506514   -1.92652235379560
H           1.57842231067471    0.43616866615205   -2.33646129365108
H           1.42897940507534    1.90809407847891   -1.90973313700426
H           2.33130527047639    0.74557188407687   -0.43690373133976
N          -2.90950159146548   -0.57992965056927    0.45933745887009
H          -2.46667186914139   -0.36408297721000    1.34519929832549
H          -2.54166206801349    0.06858699625904   -0.22586339082748
H          -2.58577658343371   -1.49867821211681    0.18231877407403
