    26
        -50.44195649  Gyration_radius:  2.44521212562 Dipole_moment: 4.528
 S          -0.11989885952667   -1.90125888060713    0.19541481998335
O           0.83876690758345   -1.61721202430409   -0.88931418398993
O           0.54252354535707   -2.48222648263043    1.34075857138031
O          -0.92167402067870   -0.74633231792501    0.51958287289713
O          -1.09588213547020   -3.00150385357165   -0.37183336867426
H          -0.55316497455186   -3.78170658856059   -0.43060498453440
O           1.43338079303106    1.40319810673619    1.61752905459958
H           2.25902749744638    1.62348453179201    2.05279002118415
O          -0.20934286412743    2.11643948389235   -1.82498071586141
H          -0.06085739750071    3.02789874290054   -2.08102593500947
O          -1.17540984986034    1.92250572374937    0.58343342016072
H          -1.29108478594755    0.95414904007794    0.57337060698830
H          -0.40193721078520    2.07486223547020    1.14018785140260
H          -0.72801760891904    2.12706893030866   -0.97111388263981
O           0.34878454451509   -0.48673591028930    3.00613992078897
H          -0.60272127134789   -0.35632228485472    2.97345590613156
H           0.50360566547722   -1.30925586063290    2.48469193120634
H           1.02207971162974    0.66556528963490    2.16645069514097
O           1.66298672411308    0.68285992679828   -0.85057642274500
H           0.95883381639791    1.24029168429740   -1.34644274303878
H           1.60423144301475    0.95456895301279    0.12666105587049
H           1.32176919028139   -0.36287469219646   -0.90184343519261
N          -1.53703016607900   -0.75148954514265   -2.46672234822814
H          -0.68937242601622   -1.28539958342279   -2.61534511264373
H          -1.82677193843927   -0.93904028881568   -1.51474674250927
H          -1.28282432957240    0.22846565427889   -2.51591686275646
