    26
        -50.44195691  Gyration_radius:  2.44541723398 Dipole_moment: 4.527
 S           0.23013368366271   -1.36817548613522   -1.32025780205993
O           1.39117972535527   -0.46119985247518   -1.39768837754980
O           0.61850963912929   -2.67591796740836   -0.84343821897400
O          -0.85838559528396   -0.78410017583381   -0.57478989461475
O          -0.26789605574592   -1.55559031629962   -2.80406024953647
H           0.41413254355400   -2.08177365289237   -3.20984408110435
O          -0.08202916584658    2.77170429044960    0.41126164348310
H          -0.06004199753087    3.54234169213175    0.98042230123540
O           0.53924697156221   -0.45238478452457    2.47947543694531
H           1.12462462373416   -0.71938529227865    3.19058209103936
O           1.66116836183659    0.91786922646842    0.60104438063145
H           1.24996247234354    0.36371252527131    1.34649823000362
H           1.57981777768258    0.31208118072640   -0.31566658640009
H           1.04208867232460    1.72479216389431    0.46818357694335
O          -0.48837896648751   -2.61838637577820    1.51562811388411
H           0.14778922481024   -1.30458430107491    2.11188472898900
H          -1.38977587573454   -2.41452409829796    1.25239053378219
H          -0.01215590579401   -2.77395312375276    0.66628735994425
O          -1.67475125105603    0.92647361715904    1.32237027151727
H          -0.82680191405224    2.18664682694798    0.72938082754677
H          -1.57526437407635    0.31736160618320    0.56723950824000
H          -1.15895399760660    0.52725471959493    2.03373126616832
N          -0.51729724710909    1.52636595762715   -2.53242263779755
H          -0.47059055266332    2.17349919147752   -1.75362910077672
H           0.42636390570450    1.20110480832965   -2.70421975787926
H          -1.04269471274554    0.71876759051288   -2.22036357370596
