    26
        -50.44195698  Gyration_radius:  2.44531268879 Dipole_moment: 4.529
 S           0.43188309460033   -1.76253720685904   -0.61203055181298
O           1.79831281870278   -2.19821129226628   -0.43494102321595
O          -0.33685784476695   -1.89136704563060    0.64045583797852
O           0.31877325676024   -0.43999031228503   -1.17763610978508
O          -0.23516248958620   -2.76377576939928   -1.63055622376312
H           0.00312183468971   -3.62311667870438   -1.29666903916289
O           1.74756115093136    1.43366748697779    1.23850679885630
H           2.37644718755577    1.59124619736536    1.94509763115335
O          -2.09899948862913    1.68143815745687    0.79082768842276
H          -2.43300502885832    2.47527540346673    1.21103490876515
O           3.00546241322332    0.10668640304311   -0.58716540923570
H           2.68606458655183   -0.82192621491355   -0.49741844930916
H           2.66449698423150    0.39738198034392   -1.43723772592665
H           2.24894935585724    0.91480222859146    0.53563362988380
O          -0.39297136083186    0.17469184934601    1.94385890850959
H          -1.15903975197378    0.73167990398283    1.54977674288808
H          -0.38850007597665   -0.77827531425479    1.39128513772322
H           0.46625591760783    0.65447460214402    1.69197628322045
O          -0.10232889735537    2.18157043888857   -0.80102139770314
H          -1.45683990154575    1.96693003874293    0.08061648489417
H           0.63505024332993    2.30610903060141   -0.19088657288829
H          -0.00125027494578    1.27080313393190   -1.13488411727609
N          -2.67480470242377   -0.96755069206103   -0.95833206258005
H          -2.46894921410840   -1.66625145585580   -0.25464918985143
H          -2.79028095889635   -0.08437439572069   -0.47442879936007
H          -1.84338885412685   -0.88938046692659   -1.53121339040509
