    26
        -50.44721130  Gyration_radius:  2.51034194932 Dipole_moment: 3.939
 S          -0.91351355335938    1.50946175712288   -1.19018185180179
O           0.48065363994769    1.92883975953325   -1.42427570191547
O          -1.04721920592929    0.07258299053709   -1.37613689038634
O          -1.44289213528436    1.98151611613344    0.05684742530526
O          -1.73015616903944    2.19448374172067   -2.35537424748550
H          -1.20741852058103    1.94660879306440   -3.11044141280875
O           1.00529090275653   -0.24896328833422    1.91001510836499
H           1.37305476017821   -0.20547558165395    2.79395748385675
O           3.11978399525794   -0.72719296527791   -1.12357310758216
H           3.78266037516423   -1.30508750736363   -0.74235691247530
O          -1.44582335430128    0.31129290653720    2.12142618460846
H          -1.53737343607312    1.04351365918186    1.47846374119815
H          -1.92065330904559   -0.44296608838378    1.69304334898742
H           0.00477368998375   -0.01625641208921    2.01752347789758
O           0.77036239920710   -1.68014798589474   -0.51656995329323
H           0.74707210890796   -1.46382433463773    0.42553593658789
H           0.09420791621028   -1.10312277328985   -0.92851135932848
H           2.24456267136197   -1.19969221833352   -1.04204592243039
O           2.17996482889568    1.23999444381913    0.19618138244854
H           1.68702231583524    0.70808556519173    0.92131635070169
H           2.68269018421257    0.53789704967848   -0.35750763746551
H           1.42440746062052    1.61177209179784   -0.49690246356718
N          -2.52092293110706   -1.55885146881230    0.50487417786223
H          -3.52562268812230   -1.60383963648529    0.39229038589051
H          -2.15956961670081   -2.50203866956154    0.43367638724900
H          -2.14534231899659   -1.02858993419891   -0.28127390042003
