    26
        -50.44721166  Gyration_radius:  2.51039084847 Dipole_moment: 3.932
 S          -0.23775504879452   -1.38395162720946   -1.59718313431237
O          -1.03364474186963   -0.18619075529515   -1.37556863570681
O           1.16059884680614   -1.02207327350444   -1.89349293048580
O          -0.35886571883613   -2.35878571166617   -0.55155595276439
O          -0.76615632165312   -2.03710807474305   -2.93431348605318
H          -0.49822188537031   -1.38301328889411   -3.57092673200809
O           2.30757120085088    2.37146252093780   -0.76632922159601
H           2.66758134802091    3.06884621398639   -0.21630844899234
O           0.97038565682283    0.17620878405262    1.93560182431427
H           1.40658229788269    0.07875777676455    2.78337991779841
O           2.51317345527763   -0.07631132190557   -0.08678702198526
H           1.94517196542999   -0.55928338113930   -0.88205776387307
H           2.57910857963179    0.89738334556648   -0.40231580830771
H           1.90841522579626   -0.05002474287125    0.74115242631375
O          -0.91510142401586   -1.50028225895953    1.89911135633782
H           0.20458692735176   -0.51673660062397    1.93994752800211
H          -1.72453991079479   -0.97455669133267    1.68413688543960
H          -0.72605598191832   -1.99039704956159    1.07328491825129
O          -0.14098214156262    1.91537761934033    0.00368020008736
H           1.32660852756317    2.33883874865603   -0.58489151981770
H          -0.51679109071806    1.22130506019631   -0.57678391220999
H           0.03320037433062    1.47336228699071    0.84575312219600
N          -2.88945397746864   -0.00420664896980    0.83606109602456
H          -3.80639156630959   -0.41168180359956    0.70454158445489
H          -2.39385765212420   -0.06542897035719   -0.05327224111327
H          -3.01516695433759    0.97848982416590    1.04513598998541
