    26
        -50.44721163  Gyration_radius:  2.51036566049 Dipole_moment: 3.933
 S           0.41546765382863   -2.03002953310501   -0.47928407610251
O          -0.21888546044206   -1.05535315347700   -1.35381278598351
O           1.80745803823825   -1.63461327137979   -0.19616486614286
O          -0.34045551322852   -2.32075768667042    0.70492224849586
O           0.54809525306367   -3.36556277686992   -1.31146524509922
H           1.18255126284391   -3.10369236908067   -1.97006799299015
O           2.66906693895879    1.98902802885188   -0.67329866341776
H           2.79314447489435    2.92169403200923   -0.49117615655316
O          -0.11721473331977    1.32770686189833    1.71549741846985
H          -0.18218804158635    1.76559890821698    2.56551846741059
O           2.18292840020473    0.33631834281710    1.20483111907103
H           2.03224764649650   -0.58206600540118    0.63711862180420
H           2.52526602807846    0.99642381046928    0.49834849811116
H           1.25419048004803    0.68254329902348    1.46826314358931
O          -1.93157129682604   -0.42519027681252    1.66794259709326
H          -1.42036517897045   -1.23127313417401    1.45147229463293
H          -0.86537042895081    0.61575655992870    1.71584526094744
H          -2.44705961503633   -0.24165275230256    0.84431239006548
O           0.12898645906169    1.57620315889072   -1.08965309660480
H           0.00733422522145    0.62766314934510   -1.30268108535863
H          -0.20195144056318    1.67672643303484   -0.18677065542566
H           1.73479667349849    1.88263777182458   -1.00806214522049
N          -2.89080494370056   -0.07941415174579   -0.82742452506109
H          -2.02928738452836   -0.50630041506020   -1.16767653352200
H          -2.97366375525506    0.82785369282270   -1.26919220889980
H          -3.66271573203260   -0.65024853305632   -1.14734199330900
