    26
        -50.44721124  Gyration_radius:  2.5103412901 Dipole_moment: 3.940
 S           0.63773163209959   -1.38465638978567   -1.48530185901775
O          -0.29271102758523   -0.28332359100559   -1.68147658551131
O           1.97746458985695   -0.86953699819166   -1.14738695725859
O           0.16749520021255   -2.38029952858525   -0.56563649762355
O           0.82630601127208   -2.07403731550787   -2.89349772455529
H           1.28114489634221   -1.38759506320890   -3.36969766184830
O           2.14714342936608    2.61839998419790    0.23834235616130
H           2.15245185035389    3.34400998634812    0.86454512612977
O          -0.00897656618487    0.25784709422696    2.15733261178285
H           0.01498423275410    0.19780694058210    3.11353196615189
O           2.28526467831647    0.20038514444560    1.03172429867222
H           1.37805277668622    0.14999781768158    1.50731785050002
H           2.18085695636144   -0.33369054866382    0.08652439212299
H           2.38213518043721    1.17907668920697    0.74016666721630
O          -1.49849661955283   -1.61419075509661    1.35525854672144
H          -2.17908313144386   -1.17688301467101    0.78653018923490
H          -0.91484419707704   -2.07097358350426    0.71601754355243
H          -0.62160009354306   -0.51454747248180    1.84935807604721
O          -0.32767123858220    1.88681213916595   -0.13094143692352
H          -0.49711325427498    1.45627121021730    0.71807398811575
H           1.19638667210316    2.47596453645038   -0.02936751476496
H          -0.33324962116359    1.16259883941193   -0.79072236653534
N          -2.94292050391923   -0.32589244738591   -0.52098678283671
H          -2.10314607128936   -0.32412747077563   -1.09981241829359
H          -3.24447293050785    0.63572089482614   -0.42276840734598
H          -3.66313284101370   -0.82513705788378   -1.02712741989603
