    26
        -50.45381466  Gyration_radius:  2.64776420003 Dipole_moment: 1.732
 S           0.37848061248207    0.67464826855335    0.21961104864137
O           1.49853706420394    1.02755088740664   -0.75138018847854
O           0.25830775469573   -0.77069788493263    0.30499363527243
O           0.86131637007955    1.21655726845306    1.55489903953054
O          -0.82606906443287    1.34277708315264   -0.18711695233259
O          -2.62992275016363    2.17304568047581    1.60920836079016
H          -2.63485341342436    3.13108686158096    1.56735149705955
H          -2.09032136399999    1.86865090411578    0.85345294169209
O          -1.13055561798719   -1.59119442318587    2.44381325545282
H          -0.61055471425415   -2.27430760182514    2.87120608799993
H          -0.67795913199776   -1.38196457615750    1.60332071729547
O           1.83241184343688   -1.41688570113728   -3.36255213549418
H           2.19824177585565   -0.74147694273771   -3.93600115342435
H           0.91142847976743   -1.12512523851880   -3.13687204635243
O          -0.93599642670483    0.94173806891129    3.24094161605509
H          -1.13382272354780   -0.01589670848677    3.12762386593590
H           0.12495934232066    1.13096466488407    2.33555214380794
H          -1.68110037929270    1.42137609580548    2.80723204555130
O           2.70612889220003   -1.15431169037089   -0.89283551392616
H           2.00620734097554   -1.57446149685117   -0.37616665524771
H           2.51145801598533   -1.37514097648900   -1.84287887184611
H           2.12862816591994    0.20220559713189   -0.80975971011946
N          -0.54890616352547   -0.51468284389549   -2.47400894360416
H          -0.54736886050595    0.48826485374392   -2.32530719835863
H          -0.53324006476954   -0.92340473862327   -1.54485752905788
H          -1.43543500332418   -0.75931540101478   -2.89946936683812
