    26
        -50.44721132  Gyration_radius:  2.5103570674 Dipole_moment: 3.939
 S           0.44554262943170   -1.50396866933600   -1.43841806735194
O          -0.35610340550188   -0.31116626742178   -1.66567479644242
O           1.84158637203723   -1.13403041595465   -1.14070498334551
O          -0.11826910703849   -2.40261058474223   -0.47260296158840
O           0.52726776910010   -2.26422216089086   -2.82016164846791
H           1.04845982372558   -1.65345214813718   -3.33027109138522
O           2.43938284686892    2.35884159255604    0.10375042232569
H           2.53945603641503    3.10208966004200    0.70066041500536
O           0.06147745987423    0.33906879442991    2.14531596392886
H           0.09630547609447    0.31333575148505    3.10273592254541
O           2.31218415905114   -0.02710397526282    0.99028999348968
H           2.12894846402108   -0.58017886290523    0.06837178044236
H           2.51606916120392    0.92209126077021    0.65902485770353
H           1.41431706131865    0.04611027486331    1.48041752370961
O          -1.64860014398356   -1.37701100455368    1.44012863924943
H          -2.28500406769978   -0.88583680689083    0.86423138732858
H          -1.13348440516687   -1.92207808937039    0.81124792592278
H          -0.64186747686392   -0.36822429917295    1.87731758265371
O          -0.10956643154629    1.90508512016744   -0.20210455538718
H          -0.31185462360142    1.52976567638605    0.66571495970837
H           1.47384117643645    2.31735904309794   -0.14511458861728
H          -0.21146298277678    1.16202077888238   -0.83246082064295
N          -2.97055425672716   -0.00250445552117   -0.46498768934810
H          -3.75296994072452   -0.43408467900517   -0.94009070607673
H          -2.14741538773714   -0.11985597684682   -1.05570727757826
H          -3.15768622621102    0.99056045333350   -0.40090820778163
