    26
        -50.44721133  Gyration_radius:  2.51034447036 Dipole_moment: 3.939
 S           0.11803303464122   -1.10999982144826   -1.81204524376681
O          -0.54477048515623    0.17302286322401   -1.63438621425110
O           1.57101717625828   -0.96933972998827   -1.60355444103407
O          -0.46258316224774   -2.17101920872346   -1.04046533735368
O          -0.02460725205477   -1.48532384474457   -3.33934997231310
H           0.51988000725530   -0.81608563516634   -3.74001902631373
O           2.71553414989758    1.99923970388285    0.39257436042599
H           2.96293708751156    2.54627784999705    1.13973571783196
O           0.30167852764757   -0.24346449930102    2.13792941819792
H           0.42137795447061   -0.52279321585977    3.04686719163801
O           2.37201657820167   -0.51150387423647    0.66285422310788
H           2.03618452373815   -0.78280924122431   -0.33865807714799
H           2.66200463541094    0.46675408571386    0.55716055334051
H           1.53975463570645   -0.48219068578706    1.26136938842625
O          -1.66846416604646   -1.53883418353326    1.23955992308076
H          -2.28840292304432   -0.85388700741281    0.88679676956486
H          -1.28643915987016   -1.94742312741470    0.43641219907531
H          -0.50652547036254   -0.78375314249809    1.78911047742321
O           0.11251015625594    1.89258919814490    0.29583225919793
H          -0.05417277144966    1.32430886223150    1.06014085028564
H           1.73357537177105    2.11890442619360    0.26069307752519
H          -0.13983061656971    1.35457495473519   -0.48310725816332
N          -2.97734760524765    0.40979896548898   -0.08556113408686
H          -2.23377776463807    0.37158473846096   -0.78263288033595
H          -3.03109294381421    1.36461114727239    0.24721109528314
H          -3.84848950825981    0.19676042199094   -0.55446792967681
