    26
        -50.44991609  Gyration_radius:  2.48965210494 Dipole_moment: 0.427
 S           0.61468199122551   -0.63289856655433   -1.78597903158471
O           1.76268986531329    0.20868267600710   -1.41337801218772
O           0.68109881361589   -1.92462434342891   -1.14254263047813
O          -0.63547063537321    0.06682711155682   -1.59705515131764
O           0.76325968596601   -0.89277698131307   -3.33772816034391
H           1.44549893893565   -1.55515290383093   -3.33447242676449
O           1.62422869145185    2.95632517526210    0.49375424372192
H           1.88073406216427    3.11218229761721   -0.41824272562396
O           0.17905273567911   -0.13296357793261    2.20842168202555
H           0.28916946092693   -0.35276632957274    3.13462695548654
O           2.28349884531912    0.56964682610526    0.96039487758547
H           1.47284491956536    0.22969707825867    1.49728762946499
H           2.11502471568529    0.29521513144561   -0.05718287031940
H           2.14750222529736    1.60084268557633    0.89083284773863
O          -0.80164700295773   -2.14853741371064    1.04968069042297
H          -1.67462784732432   -1.84109057929043    0.70230473229366
H          -0.23397341545907   -2.22009556960879    0.25441185355268
H          -0.22513495525735   -0.97168749539094    1.76308405926448
O          -0.73231258562642    1.83824460523557    0.40242479298925
H          -0.74705052693504    1.27025451335586   -0.39484892997931
H          -0.69942544127034    1.23069135185703    1.15374499684000
H           0.65854778192229    2.70288203531984    0.46652194744025
N          -2.91503189959157   -1.00512528163658   -0.18201245423139
H          -3.57137836243911   -1.56330180804982   -0.71289108996519
H          -2.25170342662886   -0.59828017056496   -0.84073869206729
H          -3.43007663419627   -0.24219046670730    0.23958086603486
