    26
        -50.44991643  Gyration_radius:  2.48986921382 Dipole_moment: 0.421
 S           0.66630668728752   -1.83945742484017    0.37266029225900
O           1.82281921859090   -1.41128697429373   -0.37982231817773
O           0.68540053056781   -1.29206885340152    1.73818714248736
O          -0.59872887886536   -1.58776501740376   -0.27890830362436
O           0.79100641428294   -3.40601537835176    0.53947874350804
H           1.72153706001030   -3.48409411892559    0.71916272751015
O           0.45808329221318    2.16126249685627   -0.20473721634827
H           0.80329472649034    3.04277659784327   -0.35325186428957
O          -1.41287479413239    1.03849586947214    2.92582880156276
H          -1.49762164195693    0.17630128087943    3.33953315986622
O           0.95490002578553    1.12779345109837    2.06796231773549
H           0.03249489531119    1.22420319118835    2.54364940039941
H           0.96725668592694    0.07324366034221    1.90475346261687
H           0.82637726572721    1.56928968652762    1.14619141181192
O          -1.86702958810510    0.67083108578380    0.38218552935639
H          -1.50437535123900   -0.20900625551138    0.15241175648575
H          -1.76395791598278    0.93188445238581    1.99692160521003
H          -1.27012521979234    1.31261323510671   -0.02603511103755
O           1.39961224378997    0.65359453592254   -1.99541467170305
H           1.69521243336665   -0.11932330542124   -1.47092998150539
H           0.61035224806080    0.32607611844103   -2.49257765555377
H           0.85633765748024    1.57012677309872   -0.95138071505995
N          -0.87599471346468   -0.46269486008476   -2.92524235949893
H          -0.89858507558247   -1.01756398052893   -2.07023217043624
H          -0.85714543126463   -1.10466785612604   -3.70735179259436
H          -1.74455276448135    0.05545160995408   -2.97304218096577
