    26
        -50.44991642  Gyration_radius:  2.48986973781 Dipole_moment: 0.422
 S           0.81287167774947   -1.81811973930107   -0.02756625607784
O           1.16138981342148   -1.47794615999120   -1.38768365096655
O           1.71361121326251   -1.16325731553287    0.93394844869148
O          -0.57383121265863   -1.59128387940619    0.30976152340797
O           1.07432312657600   -3.36858748635043    0.13106811542090
H           1.89157331574020   -3.45279491176467   -0.34775851265353
O           0.12716938018609    2.12684563370146   -0.61897221174065
H           0.25436735622049    2.98549564434565   -1.02497796641130
O           0.84810947181736    1.30233142420744    3.03614844430412
H           1.09103637656480    0.47856250680711    3.46517921812990
O          -0.30316598767940    0.45914729460360   -2.46279058919765
H          -1.21071025915025    0.11054248230329   -2.28326374576556
H          -0.04937020298800    1.46873955309931   -1.39436172696761
H           0.29421264221230   -0.27551094003433   -2.21123552643625
O          -1.16588680973906    0.74131732044002    1.47399187654914
H          -1.01436908931101    1.33452194754968    0.72567721847930
H          -1.01508992418296   -0.16212039117771    1.12832449126876
H          -0.02678174314777    1.12905087499346    2.58662173457693
O           2.04465381471620    1.26866313282992    0.81864259813922
H           1.66756302567002    1.42381040829972    1.77790083436294
H           1.98445403655941    0.20440207812800    0.76824835826022
H           1.32063080584046    1.63723539280348    0.18532193411893
N          -2.57917823374516   -0.67664783433893   -1.55790190694202
H          -2.00803701461117   -1.16059689251016   -0.86579163744048
H          -3.06124584822930   -1.37941998709530   -2.10369542769739
H          -3.27829971109036   -0.14438015660271   -1.05483562741465
