    26
        -50.44991641  Gyration_radius:  2.48985605222 Dipole_moment: 0.419
 S          -1.79755724028559    0.04353059689789    0.85559435951527
O          -1.13186788536977   -0.63911141194420    1.94092521068015
O          -1.49044844917297    1.48244168051686    0.86190975118870
O          -1.57006283714873   -0.53874837323815   -0.44723564856325
O          -3.34854282494838   -0.06246288685403    1.13938805177434
H          -3.36039091078924    0.08943119888012    2.07802767533581
O           0.37857080393921    3.07905129942125   -1.41828389537343
H          -0.54527275745561    3.33993449588110   -1.40447598312325
O           2.19994651518246    0.16234256635692    0.23570518819455
H           3.12458686602886    0.16268344636001    0.48741761822316
O           0.40159054307528    0.51647836077461   -1.91212876214483
H           0.39504150167577    2.15038156946062   -1.78550409861244
H           1.16100030687997    0.21622332923692   -1.39445246705105
H          -0.38474566257010    0.13447537463137   -1.47149925095691
O           0.85358577674036    2.21766809395558    0.90170506170251
H          -0.15146461083138    1.87627540153688    1.01290420733647
H           1.42889281820174    1.38687763559263    0.70210107835458
H           0.77331807485824    2.71512550602317   -0.01077765870966
O           1.12163458009570   -1.87258234676377    1.26678874017859
H           0.80347355762342   -2.40795942554735    0.49896425089579
H           1.78778145787397   -0.67961090087325    0.66747393539361
H           0.30574466113099   -1.49201115340739    1.65316690149703
N          -0.04893603998956   -2.95000486691174   -0.91452978842549
H          -0.54447820004099   -3.83040372609141   -0.85543595555242
H           0.37798710488917   -2.89790886456570   -1.83111908019264
H          -0.73938712961225   -2.20211659931073   -0.85662944156077
