    26
        -50.44991641  Gyration_radius:  2.4898556496 Dipole_moment: 0.419
 S          -1.79712650435720    0.82015789598975    0.25330286371876
O          -1.44262918005764    1.40815165410924   -1.04800085951579
O          -2.27192129825572   -0.53605148701914    0.10371732534337
O          -0.72765509150480    0.97788926044534    1.21222162953783
O          -3.01827146855770    1.66983146019531    0.78656337090329
H          -3.72151657322201    1.30570029051229    0.26017773624385
O           1.66755398739422    2.14370366806701   -2.06339252169729
H           1.09480370155552    2.90516386068876   -1.94582904055921
O           1.24894186730308   -1.50911168194799   -1.04184572294220
H           1.65018594977048   -2.25538227671720   -1.48949106983851
O          -0.45494740230712   -2.41224104416293    0.58533905484468
H          -1.22823241210640   -1.83870423023770    0.40389789538356
H           0.56178247428687   -1.90826803179625   -0.38319671188557
H          -0.13604839472006   -2.12099396883837    1.47462166015819
O           0.11292641939072    0.21604260362845   -2.52979060902385
H           0.53925262034806   -0.53608876594343   -1.96990654936489
H          -0.65431872400908    0.65029797560496   -1.92819473509306
H           0.81048154160006    0.99041457935557   -2.51616308596223
O           1.76756214952225    0.94574908430838    0.25302751406258
H           1.85194079508456    1.79570203708520   -1.14553667952367
H           0.88591652192352    1.04990180261459    0.66563853970058
H           1.82700293527459    0.01491052091344   -0.00156851204944
N           0.33055130786563   -1.15844486630556    2.84377242186886
H          -0.13047903223344   -1.34128016730297    3.72591172210326
H          -0.07189653969374   -0.30598676146327    2.45546356517217
H           1.30614036969807   -0.97106342172731    3.03926078842591
