    26
        -50.44772986  Gyration_radius:  2.51298252108 Dipole_moment: 2.773
 S           1.33302052252183   -1.52801781846014   -0.59436210500247
O           2.40170546077051   -0.69335906412287   -0.01817769133077
O           0.80163556307010   -2.45814718084668    0.37332359954189
O           0.32717018910111   -0.73176369242146   -1.26038698622260
O           2.04579099490033   -2.38684164048795   -1.71439163814752
H           2.62181577372894   -2.92662345616710   -1.18375213843584
O           1.39857681386226    3.06914682053434   -0.50070730285963
H           1.16177471544581    3.96071299116242   -0.24074327850188
O          -0.74374482590374    0.95928880957971    1.78943883948655
H          -1.00248536604596    1.16831977161415    2.68832009505815
O           1.73995558661601    1.27442776298843    1.27678330609967
H           0.75846115958693    1.11755067305184    1.52789523966302
H           2.06600402134903    0.39148000932854    0.72582108643005
H           1.73074178445990    2.03274006465447    0.58579026132717
O          -1.41182458921284   -1.44841362496478    1.42438014630544
H          -1.01721265784817   -0.02539046539892    1.64734373102209
H          -1.98070712472541   -1.44025696367508    0.61804133321366
H          -0.59974038705193   -1.91855512484677    1.13995089214466
O          -0.77274272887805    1.69238462014670   -0.93251793429983
H           0.56380481458392    2.63058924036868   -0.82845766011423
H          -0.39637495699593    0.83564513955619   -1.21173504265795
H          -1.07197359691157    1.54216348890400   -0.02501935524734
N          -2.50570563582875   -1.30238727973794   -1.04777500282835
H          -1.54026051774575   -1.19760922520528   -1.35693039975214
H          -3.01964141977766   -0.49558646199162   -1.37954328468715
H          -2.88804359282445   -2.12149738353622   -1.50258867960885
