    26
        -50.44991643  Gyration_radius:  2.48988212593 Dipole_moment: 0.419
 S          -1.09041013130833   -1.16754137782079    1.18884573202894
O          -0.18350663136436   -0.71261210421327    2.21725976874492
O          -2.09402687480463   -0.14008486089575    0.86976836009943
O          -0.44289298620371   -1.66120380167362   -0.00494925006079
O          -1.89982720401658   -2.37755367557063    1.80372045141453
H          -2.05986878398392   -2.04680316109953    2.68079449262264
O           1.11837455668296    1.89822901089815   -0.26125998520337
H           1.63938827296077    2.70098846495067   -0.21191827042442
O          -2.26332093703313    1.58401077880005   -2.00111933527352
H          -3.00625394053625    0.99685732254535   -1.84292416071860
O          -1.35698200014944    2.12984022113216    0.28599536557176
H          -0.34077840983674    2.08003208010108    0.12509776148863
H          -1.78259606271408    2.08597679103285   -0.66446636171644
H          -1.65548987593685    1.17755366030036    0.66428576791781
O           2.13721644253161    0.22016709842093    1.32399512278921
H           1.34661454025189   -0.11428365164032    1.79612696721182
H           2.41778726944225   -0.53394130758766    0.74957217963690
H           1.55921901816556    1.23226836894184    0.39247599255775
O          -0.13467430255847    0.07416483202333   -2.01499480371202
H          -1.48146081197466    0.99149540789349   -2.18863460554389
H           0.53002083735777    0.65554359644844   -1.62129725909084
H          -0.28497751829260   -0.63623317103376   -1.35834741347029
N           2.41803217899286   -1.89287523910826   -0.33305352785275
H           2.64759943867818   -1.77739126783319   -1.31238222508487
H           1.40829033509041   -2.01846451122998   -0.26920368497289
H           2.85452358055707   -2.74813948377639   -0.01338709897640
