    26
        -50.45282142  Gyration_radius:  2.40502135966 Dipole_moment: 1.362
 S          -1.62396986286587   -1.04323327847547    0.16509934903596
O          -2.45256112571488   -1.23158730671911   -0.98735881305010
O          -0.23716896863619   -1.42916869324378    0.02194952146393
O          -1.71565648294309    0.31898926190207    0.72553988970018
O          -2.19564826410031   -1.99058683330653    1.30979887809647
H          -3.13053604565999   -1.98791552952759    1.13424135963773
O           1.48543459634935    2.09909997399994    0.32721818058572
H           1.72121108681504    3.02150434371017    0.43414115536022
O           1.35470475359476   -1.38081974208299    2.13173801686789
H           0.66835180024214   -1.77336217475570    1.55748479415869
O           2.38909860565555   -0.53324518090341   -0.17610509459410
H           2.07863773231070   -1.18631341942985    1.49524218576710
H           1.51026500960450   -0.86816983674320   -0.40976274497521
H           2.31240509264835    0.42939944776200   -0.16571551946919
O           0.23421328303802    0.85306141449348    2.17844143554921
H          -0.64079354198984    0.63670407046461    1.64037029021769
H           0.73798248715179   -0.08362081489693    2.28323136417787
H           0.79640083401978    1.40593087341266    1.52392179573530
O          -0.57750693521706    1.91217164003300   -1.15341988535987
H           0.70514590126751    2.07453125684775   -0.32962744719157
H          -0.44030111940426    1.23140418898779   -1.86226981961660
H          -1.19067263986460    1.48568153343921   -0.53091394345874
N          -0.39890430587887   -0.23559505855376   -2.72951952282759
H          -0.63767476599781   -0.20129103849607   -3.71314609032203
H          -1.16630219496578   -0.69210529094959   -2.23890455124559
H           0.41384509300398   -0.83146379713681   -2.63167479359703
