    26
        -50.45282149  Gyration_radius:  2.4050411657 Dipole_moment: 1.363
 S          -0.35195092160304   -1.90402922754651    0.04393906934688
O          -1.17404391018173   -0.76059038269743    0.37449734530979
O          -0.67801094670400   -2.58377184090211   -1.17335906304929
O           1.07653791402055   -1.54600272664052    0.14036555186033
O          -0.59105681896999   -2.93634358043337    1.23223362033663
H          -0.36324040055253   -3.76917375329227    0.83290163286917
O           1.50072291592750    2.11318324729965    0.06899021557809
H           2.27674147138102    2.66422675297869   -0.04048079281801
O          -0.86178547356164    0.43481611863029    2.71140465173380
H          -1.20134595894098   -0.26622716924741    2.12132723446312
O          -1.27524986789916    2.01031094945135    0.59939222816964
H          -1.38115219947429    1.10975931484455    0.25746007700247
H          -1.14664079799981    1.25610558248140    2.25151550893642
H          -0.40175836194428    2.30343829378009    0.30996941783847
O           1.44134520182715    0.34972950055160   -1.76684563046191
H           0.54389633609693    0.31052696282984   -2.18835696220397
H           1.48346847228368    1.47669045156799   -0.72812449757933
H           1.48331499936489   -0.45598285146199   -1.22421033204501
O           1.46627761898045    0.24897092368694    1.82092818529954
H           1.53991370176681    1.06030440294972    1.19936645679723
H           0.52450558636739    0.34145928479249    2.31777124322137
H           1.35323339076521   -0.56289033781506    1.16513473655268
N          -1.07162829951335   -0.09570404857048   -2.55201357809844
H          -1.32318287878293   -0.17185652708476   -3.53009505376479
H          -1.81334085871139    0.40933065930139   -2.08292779497454
H          -1.05556991389102   -1.03628000939471   -2.16078346038699
