    26
        -50.45282151  Gyration_radius:  2.40493582384 Dipole_moment: 1.358
 S           1.78031322919899   -0.73036985745387    0.21774820515668
O           2.91451045758784    0.12108636209426    0.02083693912184
O           0.79841641385106   -0.27170525796509    1.17597390815503
O           1.11727155616588   -1.10986335839072   -1.04498157787080
O           2.32542856084286   -2.10124215922622    0.81625209124864
H           3.17828847971894   -2.18426474313938    0.40311778373266
O          -2.25516499953591    0.36271500222224   -1.22666645620237
H          -2.87753033012377    0.44561348607409   -1.95028675474939
O          -1.21388987812790   -1.85355524219629    1.83653290272204
H          -0.28929847931995   -1.54098699284437    1.88515944124254
O          -1.76904415601090    0.73770967332141    1.53415129440197
H          -1.72587615042403   -1.02664858134452    1.98207287457671
H          -0.80560820577886    0.68165059555932    1.44589065647470
H          -2.11284140687313    0.83427412422563    0.63686453905600
O           0.03223959305470    1.19920561285894   -1.96943271633257
H           0.55095196383400    0.38437355503275   -1.85827768905653
H          -1.38061008186582    0.77770359717558   -1.54869735623721
H           0.41421819126253    1.82239704027479   -1.29833423153809
O          -1.21109193748198   -1.90384301202909   -0.66251204191744
H          -1.27846878405285   -1.99238611084119    0.40041882518259
H          -1.73012819273028   -1.05553862464042   -0.90973262137545
H          -0.21005334830361   -1.65325925561950   -0.85522041730384
N           1.25859411076580    2.46680750637676    0.03532973469639
H           0.78555058293351    2.51134635713301    0.92944869767027
H           1.74231254710588    3.34623486287042   -0.10011532047978
H           1.96151029426600    1.73254542045651    0.10445929944369
