    26
        -50.44773016  Gyration_radius:  2.51350132198 Dipole_moment: 2.766
 S           1.10486752627184    0.59432094361570    1.69932073485046
O           0.67092848735179   -0.67550368625136    1.16225826344950
O           2.09580842547983    1.26664136337372    0.89285300682374
O          -0.03301471827462    1.47639625833037    2.01157276251758
O           1.78060714049381    0.28932195425808    3.09575508166854
H           2.11736099713746    1.15010685279397    3.32021640180020
O          -0.79117847364733    0.80393852623665   -1.84471921211305
H          -0.96109760124512    1.32837782466649   -2.62875007254672
O          -3.31968650958442   -0.24662756449391    0.75831891963045
H          -4.11452145761152   -0.36102073074055    0.23516785052388
O           1.72162086758210    0.64297234015002   -1.65571921181005
H           1.91768546131092   -0.32335206532920   -1.61231542949868
H           0.23639042118854    0.74348462836871   -1.77269287741433
H           1.94946702437192    0.97391800415630   -0.76133927044828
O          -1.78074364364795    1.73684675922696    0.31898069726276
H          -1.00555985741276    1.66136964357702    1.08232824796100
H          -1.36061678613549    1.41421471026990   -0.55872464655711
H          -2.47373566582066    1.02373505564893    0.57211387261903
O          -1.35438557639754   -1.53318140647874   -0.37190056201975
H          -1.16624810884344   -0.94913792196889   -1.11964169069290
H          -0.62836665538203   -1.36589399464114    0.25955308433919
H          -2.64299974822253   -0.88913596064626    0.40336219681075
N           2.02189672697469   -1.97674093511754   -1.04485698586411
H           2.93992471812938   -2.37729262804366   -0.90093310237534
H           1.41919310948658   -2.70561340899298   -1.40625767239746
H           1.65640389644982   -1.70214458196763   -0.13395037652276
