    26
        -50.44773018  Gyration_radius:  2.51358006266 Dipole_moment: 2.776
 S           1.35096359475969    1.57440338359011   -0.39765919593455
O           0.38349914881156    0.84166136109426   -1.18279778279621
O           0.76720021540793    2.41489433665499    0.62081426566942
O           2.39169272778490    0.69075840946176    0.15575978864859
O           2.11609848925824    2.53048503794084   -1.39792359158813
H           2.64843112411480    3.03211261857769   -0.78983638482140
O           1.44567933955746   -3.01695814371950   -0.68175842802884
H           1.19829273191936   -3.92707980078227   -0.51141289476278
O          -0.82965802541182   -1.11294730375679    1.65790134203378
H          -1.13576582701105   -1.40050566255407    2.51941269881314
O           1.67974898562202   -1.37659622559328    1.25459700605477
H           0.68514754564830   -1.24426366760687    1.46564037090716
H           1.71244493531107   -2.07573160144430    0.50421728172238
H           2.02658317009373   -0.45131952570684    0.79427256496123
O          -1.49043361901288    1.31673199603933    1.46938026159685
H          -0.66729732828386    1.80990640162012    1.26767518818744
H          -2.01839845457870    1.37846774028845    0.63784022022837
H          -1.10101323451117   -0.11982453073665    1.58784365575710
O          -0.70448642251380   -1.60824139992210   -1.11504785783962
H          -0.32226571065189   -0.72905899867093   -1.30149091096395
H           0.62873961195758   -2.55151934788837   -1.01732961085918
H          -1.05422119679584   -1.53617376917880   -0.21611042749982
N          -2.45864499941485    1.38825322293317   -1.05730650197552
H          -2.95439027839209    0.61680982688479   -1.48653035773361
H          -1.47885468253446    1.30905344724585   -1.32645656534642
H          -2.81909182113912    2.24668219523423   -1.45369414443290
