    26
        -50.44773014  Gyration_radius:  2.51367406305 Dipole_moment: 2.766
 S          -1.38079846355306   -1.23106628432199   -1.01783075112079
O          -1.48239220257445   -0.23864852841239    0.02818184952432
O          -1.00126605956235   -0.69481042746346   -2.30338721080786
O          -0.51989365097992   -2.35926169184503   -0.62252528547838
O          -2.82216552490007   -1.85764187493864   -1.19043377577453
H          -2.68289499706222   -2.41225650755515   -1.95052056791764
O           1.09409069909317   -1.53249475090031    2.84940261065216
H           1.79224605601406   -1.34664771401644    3.47914486302736
O           2.06646899252788    0.62855272331185   -0.09276103014510
H           2.95694498790073    0.84484828337506   -0.37360625801705
O           1.65168436990096   -1.84790446526476    0.38249119525502
H           1.46117972299442   -1.85187374362741    1.39060791355908
H           0.70174929154910   -2.10742808413409   -0.08594515920541
H           1.84020477748743   -0.86947045958272    0.14121547133161
O           0.12575335508793    0.71506487487338    1.95088263073984
H           0.83738654337340    0.99021829194414    1.35635485435105
H          -0.58067733898644    0.39511019653418    1.35732559213427
H           0.63064365328124   -0.66764776253303    2.66555835292624
O           0.54824176842672    1.42538143502565   -1.94652249889650
H          -0.10329876319675    2.02435351421555   -1.50982192141639
H           1.45182041277785    0.95512120410735   -0.85444539721614
H           0.01508941676848    0.64777364383916   -2.21575978936532
N          -1.42642391192555    2.60523292980161   -0.52004889983989
H          -1.68997468792166    1.64902951607301   -0.28565471756163
H          -2.21579177268104    3.03828788809144   -0.98189222720134
H          -1.26792667384831    3.09817781341306    0.34999014644972
