    26
        -50.44772979  Gyration_radius:  2.51298254879 Dipole_moment: 2.774
 S           0.79375179287815   -1.84362116671542   -0.66064701765740
O           1.28816967693539   -1.26591506002177   -1.88771948144116
O           1.76919334287788   -1.71159629221753    0.43563286294285
O          -0.51765815858915   -1.37392476351644   -0.27472683190646
O           0.66355219849517   -3.40035364556626   -0.90508180096311
H           1.53544870445053   -3.60249772049374   -1.22707487454208
O           0.55923698056169    2.07944840693073    0.19808175906804
H           0.97192122717980    2.93966964850990    0.10672956897508
O           0.01356362924839    0.15639716149026    3.40600105893581
H          -0.13935774480568    0.85627383031237    4.04263359079361
O           1.84218434798109    0.41205792161355    1.64876610444787
H           1.20430594736192    0.26654050706385    2.43909113084341
H           1.85050355414187   -0.53704369127273    1.11151588933750
H           1.37546134648846    1.09066844299986    1.03826621556549
O          -1.51201761369775    0.53473571726061    1.32593424226163
H          -1.05165962160726    1.27042181073828    0.89872432024721
H          -1.28354595680097   -0.24514923414412    0.78447762626846
H          -0.70401295112250    0.22952243165435    2.71585547705809
O           0.31095118847028    1.18355996642296   -2.14973861457343
H          -0.64642733168332    0.96327554580978   -2.24338642318409
H           0.46266233624837    1.71810154922816   -0.76353117867404
H           0.75967918823557    0.31180066968331   -2.15995460098896
N          -2.20168267711119    0.18081333147190   -2.04762909526158
H          -2.94283398575700    0.59882350346241   -1.49884959364201
H          -1.77664251905712   -0.55089902788366   -1.47963699217826
H          -2.62474689697045   -0.26110983290032   -2.85373334176311
