    26
        -50.45381452  Gyration_radius:  2.64826754103 Dipole_moment: 1.732
 S          -0.66676970826969    0.07506223829759    0.43926092309313
O          -1.91576793726722    0.03866822788930   -0.43302825699216
O           0.34845476121137   -0.78481587007381   -0.14460444685021
O          -0.25312080683618    1.43920372899336    0.61399875306780
O          -1.12243403484740   -0.51530852734676    1.76336671343372
O           2.31689439309773   -1.39432269053494    1.56704168703092
H           2.44386458309604   -2.34389051480536    1.52359290458770
H           1.68471361148052   -1.16527459396437    0.85787714251219
O          -1.11599150535846   -0.47939681758202   -3.90064552604134
H          -0.56440531669024    0.18030187188676   -3.40602925398571
H          -1.92367508466403   -0.02647712428193   -4.14839681219882
O           0.90567176423431    2.26269446529675    2.88356712509596
H           0.29253814649290    2.87439917594811    3.29525282239312
H           0.55486988180342    2.08359420393329    1.98922187254607
O          -1.48242227345024   -2.01230100388004   -1.79152336473640
H          -1.88342586834061   -0.84388205330280   -0.98199215995407
H          -1.37306976014675   -1.58581039340412   -2.68339362271436
H          -0.59376628343381   -2.07137156346174   -1.41713864848275
O           0.71935402631396   -0.33172927177270    3.41305811659901
H           0.89404091727696    0.63921185585845    3.39712960396857
H          -0.36784176456103   -0.46565017685383    2.53002350849650
H           1.45200893393312   -0.74245669327904    2.89968082233238
N           0.27368527165357    1.17638879273560   -2.28739904048001
H           1.01741794008240    1.78312511994832   -2.61213570061164
H           0.69158457583556    0.48183003422040   -1.67620706903336
H          -0.33240845264281    1.72820756954727   -1.69057809306502
