    26
        -50.45381465  Gyration_radius:  2.64767167271 Dipole_moment: 1.730
 S           0.48328013683300   -0.47693757461530    0.43327088261521
O           0.63696044771355   -1.23025049149002   -0.77985772340311
O           1.80027300338472    0.21512165181971    0.76276055576765
O          -0.57849646566827    0.51369557623949    0.38867372774349
O           0.24996996412051   -1.40880308881052    1.61085795070942
O          -0.70819929737071   -3.51138366071093   -1.17549788653527
H          -0.21053942289524   -2.67039441336963   -1.18578845339533
H          -0.05351552348837   -4.21131020861053   -1.20828090721236
O           1.90785610930998    3.57388685385680   -0.50931188841080
H           1.55628048842069    2.87475451931071   -1.11907110683696
H           2.86372654234799    3.51679238878652   -0.55348889099775
O          -3.03147560587802   -0.55169117243635    0.54301307598638
H          -3.50684074260766   -0.06483815330648    1.21882575533786
H          -2.18402922085671   -0.08426857684439    0.40745879583367
O           0.97678816430930    2.39820315166584    1.65469077492666
H           1.56849799657967    1.11122545881453    1.23675407470364
H           1.31842393823461    2.99545914377363    0.93651073982031
H           0.07607468526293    2.16363339780227    1.39575159577926
O          -1.75079221942355   -2.80248067379416    1.16069602352435
H          -1.50455326134356   -3.21960762612459    0.30116893681230
H          -0.60637693376393   -2.04811727052061    1.47948025029758
H          -2.40394869480950   -2.10023416373794    0.93850391172188
N           0.91221310088271    1.49203447359659   -1.90532123246236
H           1.48694143846266    0.66142389963344   -1.81669045939939
H           0.61444836896105    1.55600776029970   -2.87178827857972
H           0.08703300328962    1.30807880877384   -1.34332021433842
