    26
        -50.45683220  Gyration_radius:  2.43359509882 Dipole_moment: 3.401
 S          -0.34933576218936   -0.13475547010552   -1.80428314809215
O          -1.15873600262743    0.92500193718560   -1.04159184039233
O           0.37288728382779   -0.96126937532620   -0.86284365351842
O          -1.21553668921270   -0.81007357806471   -2.69983993166687
O           0.70320759005261    0.68351770959642   -2.59848802809442
H           1.38415249581971    1.01576444858190   -1.95396100157146
O           2.44462914802378    1.49541824450570   -0.81293550298923
H           3.29653311911915    1.70110995678277   -1.20177433454920
O           0.48930503328978    0.08097599549334    2.50718798123346
H           0.27460627050949    0.14502034580995    3.43837328759859
O           2.51107301465189   -0.58475912560206    0.71641239070874
H           1.86107709351892   -1.02344857397206    0.14133147556784
H           2.58371128300596    0.69737539489042   -0.21263935923652
H           2.01610093851642   -0.38300553628137    1.52743195088503
O          -0.99220128569298   -1.71494658140907    1.33744254525361
H          -0.12485299675651   -0.61068080310048    2.12366360407224
H          -1.88285405198759   -1.52603839888655    0.96982993796830
H          -0.43355830079932   -1.71670579165943    0.54368500305719
O           0.23081150722606    2.06255402185177    0.73039742008597
H          -0.62391645955046    1.40731674844122   -0.30632571742707
H           0.32525309127018    1.39718147309239    1.44971583168409
H           1.09603598654221    2.13691522534949    0.30211745292608
N          -3.05788054251831   -1.15426821190983   -0.34659805788965
H          -3.34918637554222   -0.18645506375898   -0.27588828537339
H          -3.89128877843775   -1.71745097396062   -0.47053467190043
H          -2.51003660005936   -1.22429402754178   -1.19988533833986
