    26
        -50.45683223  Gyration_radius:  2.4335548499 Dipole_moment: 3.397
 S          -0.75737880141981    1.19800550390442   -1.17641155881297
O          -1.00764127477140    0.86291288342173    0.20774726858460
O           0.17728226063168    0.14898461421015   -1.79741507489802
O          -1.89732042663154    1.33902631740709   -2.00655273475117
O           0.07380167248641    2.50839234195268   -1.18790086196118
H           0.77111625670263    2.43629108255476   -0.48211171648638
O           1.86375258932962    2.21420893906040    0.70653763885498
H           2.19573423253524    3.05418340075792    1.02819679583025
O           0.96025364201929   -1.66848310621639    1.67993788269016
H           1.22655965117203   -2.53066210034748    2.00087945530905
O           0.44962350511181    0.95213636056003    2.46090798533562
H           0.71923091102939    0.01897645562107    2.45501025233296
H           1.35967028803039    1.78900679093083    1.46929845752709
H          -0.31563794337508    0.98455297407531    1.86179038151926
O          -1.46406759192491   -1.74346524247273    0.72764213080421
H          -1.52664267758734   -0.77515540200205    0.70317313406565
H          -1.67523912910053   -1.99338647195272   -0.19803669103166
H           0.03315183144685   -1.77703665159332    1.31775919487725
O           2.15373710362686   -0.33418528910023   -0.30616675867842
H           1.79128240832173   -0.87404051576089    0.43296326378279
H           0.99440193917778   -0.07693494452452   -1.21352894507866
H           2.35949931056572    0.53865802769069    0.05901960224963
N          -2.08631871498738   -1.66164426258418   -1.92269265129472
H          -1.27885544235682   -1.85180103163773   -2.50434583068505
H          -2.23136153073295   -0.65622568673167   -1.95804047556159
H          -2.88863406928615   -2.10231496723948   -2.35766017452565
