    26
        -50.44772978  Gyration_radius:  2.51297917565 Dipole_moment: 2.774
 S          -1.37531960028029   -1.60102410272813   -0.10281706417499
O          -1.31660259904533   -1.64530428355223   -1.54450889991442
O          -0.32024734159264   -2.42601804180040    0.51115097352555
O          -1.40107992944806   -0.26366534615059    0.44505017738107
O          -2.73240727008901   -2.29143112584315    0.32353352077731
H          -2.66326845983565   -3.11905126529269   -0.14015178291143
O           1.91794605387710    0.60257948340501   -0.79658841009109
H           2.70613589410101    0.70806555360241   -1.33163580383264
O           1.77476244487730   -0.13251372980042    2.90826370358710
H           2.54825993062733    0.32613867496376    3.23971002568898
O           1.91180453217800   -1.44753404399754    0.72905199614406
H           1.90712679218675   -1.02889291869896    1.66574403454840
H           0.93443764792263   -1.91990904503966    0.62375230738002
H           1.92863989880609   -0.65904574657957    0.07402613497486
O          -0.00772297162990    0.48394713131076   -2.42577427851043
H           1.13568985926117    0.55260314495580   -1.46754336151012
H          -0.47980776514543   -0.35345792362136   -2.23261089458595
H          -0.63616665759387    1.18757404405349   -2.13623232198467
O           0.39183582710705    1.48596224386405    1.40318499636556
H          -0.36347002706563    0.91545071501878    1.16312608337321
H           1.18432861490664    0.55665133156558    2.49232689953280
H           0.94346568241394    1.50575910836966    0.60884425027351
N          -1.81099857752725    2.08738241866459   -1.19840168271075
H          -1.54968129102465    2.90349852953951   -0.65909105078302
H          -1.90677166879809    1.30905191731200   -0.54747449564389
H          -2.72088901899065    2.26318327629047   -1.60493505681973
