    26
        -50.45683228  Gyration_radius:  2.43359647954 Dipole_moment: 3.398
 S           1.35448735501113    0.06796802219576   -1.24628112665759
O          -0.05409487220369    0.39256786036656   -1.28383523113924
O           1.66952843398021   -0.70126085909704    0.04547369808126
O           1.86123644471190   -0.66639374672686   -2.34734077760948
O           2.12935199040439    1.40420493845915   -1.09690141402367
H           1.65301239045118    1.96219085779521   -0.42515365037188
O           0.78777505140016    2.79153576953094    0.67935367199921
H           0.94891219163565    3.73371889931546    0.60450261889591
O          -1.94580837478069   -0.11001599797639    1.65246104544339
H          -2.53211280116185   -0.52379792003384    2.28683039142800
O           0.64432003144923    0.41115706829651    2.06435098802782
H           1.26296912243772   -0.27774838222417    0.89095259255875
H           0.75130734593200    1.35214152223749    1.86262594333739
H          -0.31837720410009    0.21453509888787    2.00387824965981
O          -1.73567958003650   -1.56414568119704   -0.49963330845492
H          -1.90147077053162   -0.72760538734782    0.86571001716822
H          -1.31340666937441   -0.84298878761031   -0.99335030609121
H          -1.08914336612461   -2.29634235199951   -0.59830675041531
O          -1.62325524050237    2.12842612891107    0.03272369048940
H          -1.27353296702223    1.56645112820560   -0.67965491191939
H          -1.95352151731157    1.49874112419280    0.69450513182781
H          -0.18047262359615    2.64211074192943    0.44112081612480
N           0.45396957878039   -3.04417059601231   -1.15838161868056
H           0.44867537369045   -3.90963952508041   -1.68573570472619
H           1.07389629765169   -3.17078120077847   -0.36707648877195
H           0.88143437920979   -2.33085873423990   -1.74283756618926
