    26
        -50.45683222  Gyration_radius:  2.43364780693 Dipole_moment: 3.400
 S           0.80672192840303   -1.23831955302392   -1.10037648426856
O           0.19369884354437   -0.01718058325097   -1.80229295486904
O           0.41056482424508   -1.24553931229640    0.29027637557761
O           0.49269870743798   -2.39872235017490   -1.85080345200116
O           2.33595207539559   -0.97721432774265   -1.14050097922916
H           2.54236529868267   -0.25860051163448   -0.48438481359511
O           2.76535756381291    0.91475419394085    0.62470718963143
H           3.67076266055265    0.92082677830644    0.94007491628889
O          -1.15954738348365    1.63942863851903    1.58101538778218
H          -1.85071995725474    2.23749810387117    1.86725248249394
O           0.51579098465239    2.09029450190041   -0.45351376902537
H           0.30234346346221    0.86172129573181   -1.27767096528064
H          -0.11632579624287    2.01413300579910    0.29735112692790
H           1.40338914523951    1.96998723690373   -0.08576782083223
O          -2.16738843100130   -0.62898555004907    0.78838792168263
H          -1.29797785918493   -1.06047854637252    0.78758603506981
H          -1.61877569293847    0.80273156083138    1.27841935395574
H          -2.48547479948044   -0.79027617876055   -0.12635177720002
O           1.06981500742247    0.21630363656548    2.44364629483528
H           0.80122535205601   -0.54148971610192    1.89663272977388
H           2.18499457092657    0.66575568195536    1.41064873214632
H           0.31188596440624    0.82237752314205    2.40256007807208
N          -2.34905013769201   -1.41370641486906   -1.81346249086410
H          -3.06766526528081   -2.01209129835349   -2.20419774730508
H          -1.47743458617547   -1.93655374834886   -1.81912567621327
H          -2.21720648150604   -0.63665404650176   -2.45010969355746
