    26
        -50.45683210  Gyration_radius:  2.43353637604 Dipole_moment: 3.401
 S           1.28361155784192    1.31023413301336   -0.17528791768836
O           0.27780691771687    0.77317214865508   -1.06455332967080
O           1.40997668420121    0.40812053049488    1.06160945783402
O           2.57365689848643    1.50550189829522   -0.72845126863995
O           0.73545753862634    2.65114793549316    0.38123620513970
H          -0.22111411994030    2.51668167056423    0.61895607925251
O          -1.77372542103196   -1.83443365031776    0.13733028934036
H          -2.10797795525596   -2.71809090132217    0.29494660419618
O          -1.78026482201496    2.18705021263467    0.96004201540117
H          -2.30387079542994    2.99003590258273    0.97881471141104
O          -0.84704358946129   -0.18058565842498    2.02293364315721
H          -1.34408149143293    0.64242392619265    1.90865884208354
H          -1.23103512197044   -0.83493383976679    1.39564487215903
H           0.50686894818234    0.14345563290552    1.47832607360013
O           0.31730908025552   -1.90027400485408   -1.41565449708311
H           0.28252921898614   -0.94265919183722   -1.57019112139643
H           1.23288344994337   -2.02881187080169   -1.08494601004193
H          -0.96834849015774   -1.93856900862138   -0.44845791604093
O          -2.40158739101833    0.62490169632502   -1.00043057423462
H          -2.12065659505712    1.63557930609809    0.18758281147796
H          -1.49456989158251    0.70077352948552   -1.34298681602008
H          -2.45445096366156   -0.28391968108975   -0.66165459758653
N           2.87501154665598   -1.48373301672001   -0.57856807449787
H           3.70499505929251   -1.90138647716440   -0.98322186829612
H           2.95822699629798   -1.54969420432792    0.42897422035739
H           2.89039275152661   -0.49198701749216   -0.80065182421566
