    26
        -50.44772979  Gyration_radius:  2.51298592672 Dipole_moment: 2.774
 S           0.83873160069662   -1.88493885485662   -0.45712648621851
O           2.10439629182676   -1.34745533044943    0.07197946232785
O           0.07028327473383   -2.54892839909553    0.56878887344949
O           0.09734894321220   -0.88856912576986   -1.19668953828109
O           1.27046043059366   -2.99375930155334   -1.49839718578341
H           1.67210175437421   -3.63307400443469   -0.91985993016079
O           2.21205831045600    2.49664727018756   -0.70647922250117
H           2.24098756065411    3.43587698894729   -0.51800590490624
O          -0.42859016826785    1.26459569165998    1.70091866040426
H          -0.61147624370946    1.60620331128947    2.57755913248917
O           2.03870043866726    0.81996114218930    1.20551846191651
H           2.09616783717004   -0.15861700436216    0.72740772314850
H           2.24183750724877    1.49451607488151    0.45960761587347
H           1.05476444900720    0.96864251977927    1.45213118050243
O          -1.75725606337346   -0.87388170407631    1.50574535126259
H          -1.11462350208900   -1.57601533784077    1.27025913809613
H          -0.97206518115014    0.39054999631569    1.62830415858721
H          -2.30512669978169   -0.76546483831536    0.69213960744116
O          -0.26429272979480    1.76598532686097   -1.06852839224293
H           1.28488416513273    2.29036792263087   -1.01365960622698
H          -0.14931091447602    0.81888390121431   -1.27678440152750
H          -0.58834369972298    1.77675892002194   -0.15718834594221
N          -2.77936528499204   -0.61097647838080   -0.98732984139210
H          -3.38229864751849   -1.31926868166931   -1.38592615347988
H          -1.82607152785718   -0.80935438521538   -1.28826025203667
H          -3.04390187929161    0.28131437034532   -1.38612409399219
