    26
        -50.45683222  Gyration_radius:  2.43359825615 Dipole_moment: 3.398
 S           0.52536962510700   -0.66310158377661   -1.63665555476298
O          -0.27846395134303    0.64549553588803   -1.67068128458424
O           0.50251085066294   -1.20935636802163   -0.29801102133458
O           0.05705795023383   -1.51088093978761   -2.67119915443354
O           1.98530606268362   -0.22510782760016   -1.92847839193327
H           2.33661460406541    0.23263074761201   -1.11821015684635
O           2.80971558569771    0.95400466076167    0.26468027241051
H           3.76541096807768    0.95470014790587    0.34157037003036
O          -0.75229335143724    0.82405696194194    2.29876174629300
H          -1.36088821196243    1.19598203205281    2.93795942590178
O           1.65832235831212   -0.53812175959588    2.03073485738591
H           0.90059701412746   -0.05074207026983    2.39377573067785
H           1.27671403043145   -1.07951905868670    1.31880867328504
H           2.45791956945416    0.37616473185537    1.01225553678830
O          -1.87368924967162   -1.11969414631329    0.97441004493301
H          -1.02351922892666   -1.41630618718802    0.61204677143942
H          -1.25313555897996    0.10050132930655    1.82113400821969
H          -2.41337087756687   -0.98327620792646    0.16565890687385
O           0.33028438631951    2.16108514925632    0.25189671853168
H           1.28537780466861    2.02385226722942    0.33273988145065
H          -0.05909062081248    1.28816108155921   -0.89705848684066
H          -0.08471727298189    1.74978130509199    1.04421022457651
N          -2.70215611323674   -0.94768095242036   -1.61446077933966
H          -2.75893417109257    0.01422735489065   -1.92750751422690
H          -3.48214552308561   -1.44977272003044   -2.02273448109956
H          -1.84879668874583   -1.32708348373489   -2.01564634339304
