    26
        -50.45683204  Gyration_radius:  2.43354379662 Dipole_moment: 3.403
 S          -1.64631916253985    0.44726928353119    0.69699514071396
O          -1.38393998588874    0.90021636911079   -0.74722766240580
O          -0.42091479875216   -0.05737881040892    1.27544019922243
O          -2.28423300084211    1.50278750434576    1.39511358263445
O          -2.61527580548319   -0.75619377106268    0.55242573913396
H          -2.09559445600400   -1.52797849455834    0.20050549365387
O          -1.14517243171187   -2.72542778146811   -0.36417806212371
H          -1.52599687963254   -3.58401983968602   -0.17165034266033
O           2.32726503163756   -0.59589202718105   -0.87183680036889
H           3.15318301830939   -0.44600023798613   -1.33307332020873
O           1.04393262766357   -2.28044618526773    0.93180524892116
H          -0.28527399528621   -2.66441671520954    0.15883815281758
H           1.68951672082632   -1.89445885448136    0.31720648866638
H           0.62971298095653   -1.51121600477353    1.35894940342859
O          -0.06712687834732   -0.81951701265148   -2.04070546195653
H          -0.43498191143834   -1.65340348118835   -1.71390600791775
H          -0.84384286084457    0.22380295801171   -1.30420259017950
H           0.85118675675477   -0.75678621699466   -1.69156281241335
O           1.80773249127583    1.37013328149858    0.75712551413798
H           1.33826408117688    2.18829043479139    0.48448033855588
H           1.10924214126460    0.86705772013674    1.20560798898641
H           2.18636431935310    0.20018982729132   -0.28105716234522
N          -0.09657014643220    3.26843515193462    0.32513761648276
H          -0.05821809464367    4.22886104972236    0.64628831161270
H          -0.82606222833219    2.79674106146715    0.85275419548533
H          -0.40687752304169    3.27935076107622   -0.63927318186889
