    26
        -50.45683224  Gyration_radius:  2.43354237595 Dipole_moment: 3.399
 S           0.39439735951569   -0.46852262090861   -1.73732272028508
O          -0.55526091845701    0.72643606338296   -1.56454827943638
O           0.60026906534635   -1.11082365552076   -0.45821921948646
O          -0.09485886044308   -1.29009207017274   -2.78327968259378
O           1.74604545710661    0.17127667869032   -2.15218996592603
H           2.13835284849976    0.60837164434530   -1.34940490149484
O          -0.55529669863458    0.54989931581771    2.43215554877334
H          -1.11937849745661    0.79241610892424    3.16725269922315
O           2.69004619572162    1.27948328439137    0.02980405278367
H           3.64129071679886    1.39550496296895   -0.00150819236600
O           1.94665675243600   -0.47293971937954    1.77541832051047
H           2.50261670276436    0.60800997443178    0.75821462376905
H           1.18724523550071   -0.11340907980815    2.26284378010691
H           1.54662727550096   -1.00426249026856    1.06600178626884
O          -1.59617111167881   -1.41666605159398    1.07615265426879
H          -0.76806684247740   -1.57554407192996    0.59538563783416
H          -1.02301358688558   -0.19381585886704    1.95192848995556
H          -2.24328844820703   -1.29027419111057    0.34865749630958
O           0.10414361685814    2.16131358137029    0.40276224513139
H          -0.15974976440335    1.64355238696525    1.19736518227983
H           1.07139806638657    2.14011764580754    0.36312961427387
H          -0.31876139849772    1.33305574906949   -0.76726868437281
N          -2.75109881225912   -1.15962305669310   -1.37698261690105
H          -2.95739185431829   -0.19184008210138   -1.59470335027607
H          -3.51163506007669   -1.72415373844264   -1.73772651629637
H          -1.91511745865339   -1.39747068936866   -1.90391801205311
