    26
        -50.45683224  Gyration_radius:  2.4334700376 Dipole_moment: 3.400
 S           0.94200789747442   -0.64354588681050    1.44640285856986
O          -0.50916914830289   -0.22242372721123    1.72255434565979
O           1.32189102957947   -0.22497391658014    0.11551173246975
O           1.75870286120055   -0.18226443645182    2.50872848810731
O           0.89824392195513   -2.19476695507548    1.44467095086978
H           0.45153086384543   -2.48847495679148    0.60582576413534
O          -0.28188418768923   -2.85457549859122   -0.80300248858293
H          -0.06373295389554   -3.74571441474969   -1.08141518459097
O          -1.21976216806421    0.94542576022750   -2.03630864625097
H          -1.78851940115342    1.55083727741031   -2.51311180044825
O           0.69617222436854   -1.04389470260841   -2.36345228635272
H           0.11226022293911   -2.23029680109823   -1.48970304566057
H           0.00686310113377   -0.37967301921063   -2.52869146070612
H           1.20475775477516   -0.68147627385407   -1.61801389646629
O           0.53041898590381    2.24820885728118   -0.61208761032495
H           1.05884309126602    1.44893962718544   -0.45696866822125
H          -0.58981906500154    1.51218894059895   -1.50288065626016
H           0.35659208598379    2.56820339560123    0.29978928732273
O          -2.03591565206457   -0.81511874491314   -0.19643377712267
H          -1.68526792554576   -1.66972938912017   -0.48666545502039
H          -1.16085617721389   -0.44520224816130    0.95757971864255
H          -1.82277107238630   -0.16453284687781   -0.90373668514679
N           0.44326538765457    2.49111956784768    2.09895395287339
H          -0.46528828261692    2.23909219214659    2.46986568963956
H           0.78552914538804    3.28029053934544    2.63480027917081
H           1.05590744047023    1.70235766046366    2.28778860369065
