    26
        -50.45567375  Gyration_radius:  2.4606719954 Dipole_moment: 5.104
 S          -1.34328672431863   -0.61367915497759   -1.26749076460060
O           0.01237427049524   -1.04719984475249   -1.85949584779883
O          -1.10146787498808    0.10925335116475   -0.04294579600959
O          -2.09840739009140    0.10710835374741   -2.24622593938056
O          -2.03554445724080   -1.94015203778725   -0.94180677441807
H          -1.40034867739772   -2.38559304855542   -0.24122236753718
O           1.13519621301440    2.46506026420446   -0.42274262541250
H           1.67945895027707    3.07180079431694   -0.92737806002747
O           1.28094538828378   -0.81585038377278    2.09928821445259
H           1.94098265428668   -0.79103623965777    2.79366687073020
O           1.89768109270462   -0.13025444349797   -0.46538785177081
H           0.81056567728221   -0.68757304202558   -1.30945722515208
H           1.67724322224473    0.82598802241756   -0.45006511273567
H           1.73106708500333   -0.45330065017533    0.44306703452863
O          -1.24408098565621    2.56435598170585   -1.60879137038844
H          -1.89536621040973    2.79915869088803   -0.94399189349154
H           0.24883461381178    2.46682493629548   -0.86316454991171
H          -1.54965041651651    1.71086313240007   -1.97448116413647
O           0.00005701741863    1.47654019599749    1.95769286169064
H           0.53422015703339    2.04229217210054    1.38321901477214
H          -0.62626628776347    1.05423004745517    1.34480698968233
H           0.76988839186694    0.03595834056882    2.16771125474478
N          -0.30780693766671   -2.88481525467393    0.69158398553797
H          -0.62788466957814   -3.59709594112811    1.33484706662929
H           0.07925706661310   -2.11163647842388    1.22932627391018
H           0.43233884127968   -3.27124778383391    0.11943779609389
