    26
        -50.45567454  Gyration_radius:  2.46065353036 Dipole_moment: 5.093
 S           0.20702312777767   -1.72329825765844   -0.88094208231031
O           0.63784543995038   -1.94724035611572    0.58219502039641
O          -0.13530554890473   -0.33273486089919   -1.05278663172147
O           1.22097635760442   -2.20224183890798   -1.76976796385606
O          -1.05766554325984   -2.57584033721261   -1.01901489489150
H          -1.71429081030947   -2.15987107003916   -0.32042262174528
O           2.18270473480702    1.65954477157150    0.10769376409116
H           3.06406108079144    1.87814340761321    0.41502109041847
O          -1.77247206980394    1.37439262745121    1.30360779531632
H          -2.10938707229928    2.09616532752352    1.83646103053669
O           2.59059315633753    0.08799374835939   -2.00017937929702
H           2.13956939452261    0.47713756141542   -2.75283100471125
H           2.30838709129779    1.05300085792198   -0.66415368002795
H           2.21527406297912   -0.81052942733548   -1.91486618208868
O           0.65035789029713    0.24117426123281    1.82672535330507
H          -0.24998758632318    0.60911343070516    1.71972894151923
H           0.65228698705263   -1.06644743034814    1.12361438434291
H           1.22806357365225    0.78503460831812    1.24886861226025
O          -0.42192917723366    2.29726928547140   -0.75581202106911
H          -0.39913011305747    1.39160655317616   -1.11001093702056
H          -1.36536375351126    1.78876709087512    0.49510748099369
H           0.48031544964795    2.44021695141929   -0.43808882940699
N          -2.47024752231400   -1.46203282529499    0.80038367432012
H          -2.26761526012080   -0.46424790401994    0.79767045116815
H          -2.14150433310312   -1.84689087149973    1.67696731831965
H          -3.47255955645115   -1.58818529373805    0.74483131116726
