    26
        -50.45567461  Gyration_radius:  2.46064078301 Dipole_moment: 5.094
 S          -0.85477129399487   -0.89128645045387   -1.50484930081376
O          -1.84249628177688    0.20127365035614   -1.04923636901217
O           0.28989377164290   -0.87229754705701   -0.62752098794303
O          -1.52332133343549   -2.15379456629484   -1.58592035940747
O          -0.42819826417888   -0.43193479046803   -2.90194442613462
H           0.02265856274513    0.49571984646839   -2.73093738879503
O          -0.57384387749256   -0.90468641259382    2.52638116126645
H          -1.17637548881401   -1.04068895295559    3.25950409512359
O           1.58826859927530    1.98923281421687    0.49996566369444
H           2.06193227742394    2.62360638595592    1.03997127284511
O          -0.99673592393185    1.31736736811234    1.04323183346347
H          -0.85831546399656    0.54219375945114    1.62915657367283
H          -0.10102563582776    1.64389298290407    0.82307680422787
H          -1.52396538991641    0.68183488980165   -0.19111538500372
O           1.96707109242315   -0.45375946652802    1.39698756299879
H           1.53729600994007   -0.78574573911484    0.58995417046517
H           1.85493526715205    1.08765004616927    0.82743303592384
H           1.29925464812829   -0.59035048971660    2.08313384418987
O          -1.02058700432865   -2.97347813195250    0.91386915210635
H          -0.18690918319704   -3.42871373067118    0.77574535830835
H          -0.73956206756148   -1.65131141775055    1.89831516376796
H          -1.32993823112989   -2.73125858841375    0.01880680203086
N           0.55437102840042    1.84477666414943   -2.27344746095623
H           1.20315692427781    2.26132800369126   -2.92854912267547
H           1.01587704252866    1.75660713896440   -1.37017028628134
H          -0.23866975407904    2.46382274388483   -2.16184137705011
