    26
        -50.45567453  Gyration_radius:  2.46069325994 Dipole_moment: 5.093
 S           1.64574008171183   -0.60736260061207    0.84379357378797
O           2.00798753509869   -0.32965131451085   -0.62864872466155
O           0.23613125948650   -0.36208996823540    1.02568811789128
O           2.07552519703083   -1.92063378699013    1.21538268589938
O           2.44555337630634    0.44527719231619    1.61685569613265
H           2.07189759028576    1.35300001535270    1.25830154078853
O          -1.57758551465522   -1.87316224753563   -1.23853607435249
H          -1.74212809340112   -2.51523834921425   -1.93112789128593
O          -1.30867419122405    2.18896459787198   -0.47440014164234
H          -1.99144533891702    2.74224676972077   -0.85659362861344
O          -0.18339004024942   -3.21546400228355    0.58729646058850
H          -1.03690826216356   -2.34411748413399   -0.55640625848823
H           0.70728483463251   -2.85382353577004    0.76450804323957
H          -0.64993845833216   -3.15252130155925    1.42378875139258
O          -0.06219122284218    0.25567088375029   -1.93636055709336
H          -0.46495811854542    1.01324354052207   -1.46598421612342
H           1.17864425999169   -0.08378021513448   -1.19506257369631
H          -0.63670864114077   -0.51467668356132   -1.73661888558096
O          -2.36561624397010    0.06055470627978    0.65241150501957
H          -2.45302813534416   -0.59624336716004   -0.05214376596025
H          -1.49382490561167   -0.13232378932613    1.03841756557482
H          -1.77906846334426    1.46351888957340    0.01914413259325
N           1.45119713318778    2.54514686433479    0.54533867713962
H           0.46356871441147    2.37586586990415    0.36480724667968
H           1.92045373089793    2.64718898840922   -0.34570634747445
H           1.54148195669991    3.41041033800838    1.06185506825057
