    26
        -50.45381458  Gyration_radius:  2.64804651087 Dipole_moment: 1.731
 S          -0.66892596599682   -0.18528443225093    0.40334130794991
O           0.03268583190470   -0.09021860660242   -0.86534863004432
O          -2.14260349070265    0.11512387640024    0.18482657571169
O          -0.65158398271351   -1.63319511977844    0.87784777768175
O          -0.13333442516157    0.65622271776952    1.43663451885636
O           2.31186798426309   -3.36112883006034   -0.19549230743335
H           2.23383944725133   -3.94868849825568    0.55785020198349
H           2.43334447723770   -2.44768457339020    0.17202570720806
O          -1.02675833535649    3.15444395056239    1.80088342747972
H          -0.57046504719389    2.29261324405403    1.73783052715983
H          -1.46601919162098    3.16417118501158    2.65329792732461
O          -0.48235787475362    2.18469976447558   -2.18280832728895
H          -0.70070067644302    1.94429860768095   -3.08518032412539
H          -0.18080045356361    1.36636843624717   -1.74190646283125
O          -0.04426934162753   -2.81591191303339   -1.23688943324687
H           0.85423020729018   -3.15059154865851   -0.97263237429030
H          -0.49910033618865   -2.23097254305042    0.04074293176867
H           0.10818247935145   -1.96500084514475   -1.66825048133557
O          -2.40816981369574    2.51615197075084   -0.37445877089807
H          -1.76009570870633    2.59428671572896   -1.11133092958305
H          -2.33090044529896    1.14648557225815   -0.06025239432450
H          -1.97897324754777    2.94285926889088    0.40471132311695
N           2.32903969253365   -0.83559124765143    0.75111179195562
H           1.72844814657557   -0.72498631789056    1.56051822332667
H           1.83716584440304   -0.38098604515848   -0.01181573313145
H           3.17625424567884   -0.30748480896451    0.92474393695247
