    26
        -50.45567462  Gyration_radius:  2.460688704 Dipole_moment: 5.093
 S           1.42921277868614    0.88120096993623   -0.98528920937050
O           0.90115377457940    0.57074474403714    0.32049244258256
O           0.44931826094786    0.35194858135760   -2.05130377182709
O           1.69235460076589    2.27001139148094   -1.20771681782326
O           2.69995007519396    0.06071878631418   -1.22436138975955
H           2.39311247086062   -0.92485378975607   -1.05931000885133
O          -2.22703255358608    1.47388247228123    0.63089949167940
H          -3.01933878785562    1.95560345762518    0.38758855190816
O          -0.62437252407331   -2.33208135127640    0.95016455273864
H          -1.18334436519246   -2.99829290079033    1.35275765518700
O          -0.26338608749480    3.24580232245997    0.34037254280942
H           0.41858975438849    2.99289482720945   -0.31264160545128
H          -1.47679988942140    2.10716578067198    0.50667206217077
H           0.20346278519893    3.31289503112697    1.17636140029732
O          -0.66785081977874   -0.11232257374684    2.35966779639705
H          -1.43260160086922    0.38777419805957    2.04263656768596
H          -0.60525893034558   -1.56264880412289    1.58167374922961
H           0.06455816116128    0.21691705863213    1.81063179966197
O          -1.58902756603364   -0.62883056174814   -0.94614804590768
H          -0.40027507563209   -0.06015253922686   -1.63026808551451
H          -1.25181984071251   -1.30951312972522   -0.32939157011473
H          -1.87730342846161    0.11993997376518   -0.38079094242190
N           1.72194889930668   -2.27482935174125   -0.85902375647092
H           1.02721754318824   -2.21950144254915   -0.11678154252108
H           2.37384028383330   -3.01595352062724   -0.63690157580057
H           1.24369209135024   -2.50851964965644   -1.71999029051831
