    26
        -50.44772987  Gyration_radius:  2.51303087492 Dipole_moment: 2.777
 S           1.04470999758641   -1.74334771385007    0.57890611273852
O           2.14455273387087   -1.25410271843243   -0.27060970469297
O           1.18005942689646   -1.28827387545336    1.94216038551545
O          -0.24922159610808   -1.47412863870371   -0.00642422612860
O           1.21420158061481   -3.31526113302135    0.59999405020551
H           2.03889032223606   -3.39804590514792    1.06663515006329
O           0.57645354560103    0.70445743967606   -3.28610223731298
H           0.38927782113433    1.45643771619894   -3.85003568826856
O           0.12227120576339    2.15188268367714    0.17564328314391
H           0.31636228952984    3.04836531431250    0.45369645075051
O          -0.33363980191050    0.85812734588011    2.29565440621675
H           0.28392321890625    0.09653312917349    2.29090792465097
H          -0.06075657529020    1.62837006024095    1.04577779989857
H          -1.22206465626187    0.44917267463853    2.16395837217002
O          -1.33489688897836    0.44600610469047   -1.53200033879314
H          -1.04196857944225   -0.35387390123188   -1.05446798956358
H          -1.12696612303344    1.17651132558047   -0.93301864495716
H          -0.24935960200540    0.52787914911863   -2.75372978080257
O           1.96939941810562    1.01315819680665   -1.17397780412397
H           1.52678811731610    0.87975285654482   -2.08995637518904
H           1.26739326506186    1.48395049326033   -0.59376658639740
H           2.08798313543650    0.00856128045510   -0.76662690786072
N          -2.51271905961135   -0.57019899242832    1.56051578897151
H          -3.21892274154452   -0.21658462255740    0.92696163882918
H          -2.96469662879131   -1.20781514708310    2.20332977364673
H          -1.84705382557151   -1.10753312252868    1.00657515734875
