    26
        -50.44849477  Gyration_radius:  2.48582331127 Dipole_moment: 4.258
 S           0.21384106320620   -1.90976576591384   -0.42622186229251
O           0.69685052305372   -0.91704004012963   -1.40435725662668
O           1.22902170288833   -2.85527262147643   -0.06242015580621
O          -0.45974594251790   -1.25192998133263    0.67539226761505
O          -0.91498478286519   -2.73402314111143   -1.18622658371571
H          -0.44073288305461   -3.50212407458051   -1.48725609987858
O          -0.12476006967347    2.24371446798319    0.88950073682607
H           0.36174149778609    3.06174041513017    0.99878229641617
O          -2.82391570846077    0.94448746740950   -1.54427861958484
H          -3.41924337406558    1.68721461509802   -1.65705245142588
O          -2.44305573502943    0.50584942163221    0.99163260957309
H          -1.84715237533048   -0.26765913183928    0.94902536235129
H          -1.87905604718712    1.23657426915690    1.27314453240631
H          -2.84619250372099    0.69877185155694   -0.57677370043094
O           1.13511261038113    0.37361448238767    2.07316062081508
H           1.95515055344022    0.14016477418626    1.57175548098894
H           0.39399456181613    1.53297636531047    1.40813565128443
H           0.51632582053720   -0.33583297783769    1.82138579024362
O          -0.30534498298866    1.31288049765546   -1.48726874127095
H          -1.30987970249361    1.16829478380091   -1.63012583926445
H          -0.20528533746803    1.70073852708578   -0.54412537786960
H           0.14094599801236    0.31460270559984   -1.46589906824653
N           2.98308822289334   -0.61857414151387    0.40300886310070
H           3.95269651297865   -0.82339904146200    0.61402618811565
H           2.94973291274140   -0.19881004440693   -0.51853330712015
H           2.49084748512650   -1.50719368238751    0.32158862379195
