    26
        -50.44849477  Gyration_radius:  2.48581822825 Dipole_moment: 4.261
 S           0.49131424783563   -1.64051927244851   -0.97119220232444
O           0.43043533577680   -1.69114361342660    0.50156388593950
O          -0.31357373405545   -2.65639691450833   -1.58541175945965
O           0.26912913583334   -0.28846117153803   -1.44307190350505
O           2.00091746855009   -1.97974500944451   -1.34166621210588
H           1.95980557173925   -2.91002391579380   -1.53798799512598
O           2.90916090643538    1.40161480855401    0.90836372045286
H           3.28226393827343    2.17681648954217    1.33101375051239
O          -0.89545475689980    2.05031717537544    0.91362382988702
H          -1.52757505083963    2.40888581355974    1.53784589966974
O           0.78061403621785    0.34122911221876    1.81736097607354
H           0.63451757850887   -0.57477709672955    1.23846883235927
H           1.69608540029542    0.70720432582532    1.53715061209075
H           0.08854886525802    1.01715393321932    1.47922093931982
O          -2.14701897966815    0.66718496673840   -0.81996995353627
H          -1.44138560857634    1.53695262668203    0.21947154973794
H          -1.35413448208777    0.38425294701733   -1.31078775226052
H          -2.47088605686870   -0.17649805700162   -0.41776703475914
O           1.28948760337003    2.13553174885662   -0.99052372431576
H           1.00832035817457    1.26327336903393   -1.33027677989992
H           0.51871765709022    2.47762429757497   -0.52129811515579
H           2.44271349630317    1.71677646192219    0.08368142493398
N          -2.47213037830968   -1.81952602184382    0.12804154098662
H          -3.31966516481877   -2.37460342876419    0.11387444842535
H          -2.02442376194044   -1.96261617602260    1.02562441622496
H          -1.83578362559456   -2.21050740860215   -0.56535241416497
