    26
        -50.44849480  Gyration_radius:  2.48579423001 Dipole_moment: 4.259
 S           1.50974501972195   -0.20143223544257    1.24734177982759
O           2.06476302095779    0.69706331398076    2.21773103510699
O           0.19171895203921   -0.72286750690276    1.65513299199259
O           1.46210679530427    0.29169157839754   -0.11452532321121
O           2.47012637662365   -1.46927508009193    1.20927473662001
H           2.89832879172922   -1.42799506303967    2.05810641732242
O          -1.71940485180222    0.62646300692961   -1.57855521256935
H          -2.60151690093894    0.99155134220950   -1.65849074142658
O          -0.18386516633711   -2.91339820387825   -1.65190673270126
H          -0.65124751060357   -3.36007520857530   -2.35957887127596
O          -1.44012026551676   -1.39734022517326   -0.03792713465701
H          -1.57802472018650   -0.57764606208316   -0.63726140415154
H          -0.97241288280751   -2.09956977041129   -0.61984064438480
H          -0.71301382125138   -1.10951669790991    0.72639306401926
O           0.72277643959749   -0.63001788623751   -2.50750518995452
H          -0.06578175575210   -0.07880251380924   -2.58261506454085
H           1.17687265449711   -0.30821464275971   -1.70406419755574
H           0.29456274956801   -2.13943061074223   -2.06310434422021
O          -0.22020858842657    2.34173882751508   -0.44049690546621
H          -1.14659368897195    1.35759030679503   -1.15344885394320
H          -0.45003852746836    2.41644555669492    0.51867652956125
H           0.57798282346716    1.78280278528965   -0.43039452699775
N          -0.46365048041383    2.07657485290834    2.21635915046523
H          -0.59034485619429    2.81667465744196    2.89667113006229
H           0.49079323044485    1.73178603877346    2.30997705793687
H          -1.06355283727602    1.30519945011894    2.48405124414178
