    26
        -50.44772986  Gyration_radius:  2.51303020698 Dipole_moment: 2.776
 S           1.96666587968116    0.04662041341361    0.77192515864982
O           2.41319246120820   -0.24552638345654   -0.60137917556749
O           1.90451936564203    1.46693949166095    1.02234806543435
O           0.75361701173288   -0.66441126252118    1.10704441747468
O           3.10463519164016   -0.53502074163994    1.70294280172110
H           3.82960390810359    0.03679609625173    1.47456159394558
O          -0.31588593150994   -2.47809216652564   -2.32082846042730
H          -0.99242826485256   -2.71359853904906   -2.95749869445915
O          -1.26882905635800    1.05992906944334   -1.39386879962387
H          -1.66932472045756    1.71598214978806   -1.96645385098488
O          -1.44516579884901   -1.48419136481947   -0.19155238860258
H          -0.78307915876892   -2.27411529693632   -1.46252072736555
H          -0.66532790210644   -1.31958743126119    0.37271841518764
H          -1.69908004004522   -0.60921395574883   -0.51650248421132
O          -0.59157003417679    2.29720426258916    0.70056569403366
H          -0.99254760070947    1.57175317211999   -0.54159309811351
H          -1.01909108332178    1.80570111339741    1.44187859601994
H           0.36660416383760    2.12802547154142    0.82185978867075
O           0.74381294878244   -0.16090920319460   -2.38832019250744
H           0.40706295137740   -1.12767345923823   -2.45674310324461
H          -0.03922538680184    0.37791107866020   -2.00409210434983
H           1.51538778826352   -0.18254567052477   -1.61798011195108
N          -1.40593483550859    0.55473776839211    2.60570030119004
H          -2.22946973808052   -0.02634422068811    2.50933181499534
H          -1.28253478356984    0.75622565919801    3.58967616764399
H          -0.60560733514017    0.00340392916697    2.29878037644388
