    26
        -50.44849469  Gyration_radius:  2.48587543056 Dipole_moment: 4.262
 S          -1.95977380195985   -0.17732712208377    0.05700537932155
O          -3.00165793885450    0.80809082433231    0.07524593181528
O          -1.28754992474174   -0.25804815734130   -1.25339622164410
O          -0.98398689506469   -0.08363603705734    1.12428919918445
O          -2.67207770961323   -1.58658340714154    0.25173996427708
H          -3.56174770184884   -1.40789607186352   -0.03494902166151
O           1.17705784511802   -3.14149866060415   -0.03400671258238
H           1.98848805775579   -3.65139751039675   -0.01396116164339
O           2.35099038975157    0.52928709505375    0.18355033682966
H           3.06128507178895    1.04448645919737   -0.20096923692981
O           1.04024526118877   -0.99622046849237   -1.39816176957279
H          -0.00410984331617   -0.67649297967285   -1.34493383650907
H           1.57263476542293   -0.36618099125977   -0.79006522392471
H           1.07448047778973   -1.91835733280589   -0.95206249112839
O           0.52795191805282    2.11531446491925    0.98733891490869
H          -0.07882573408287    1.41851128103896    1.29701579846334
H           1.66308586357483    1.20325954551060    0.52401489173792
H           0.04462566633656    2.50281917374232    0.21616635221242
O           1.16054801598450   -1.44666950656384    1.93959899921194
H           1.12868176632525   -2.63893683012689    0.82743854950568
H           1.80460629571787   -0.77708658698318    1.67859004779373
H           0.29028641486920   -1.02339585624461    1.80241764524118
N          -1.11209929203508    2.66015466918173   -1.06247223222819
H          -1.46187919022572    3.56903064882423   -1.34217321269714
H          -1.88376141545169    2.15150607493230   -0.63309311479091
H          -0.87749837247748    2.14726729189930   -1.90416775519319
