    26
        -50.44849473  Gyration_radius:  2.48586444667 Dipole_moment: 4.262
 S          -0.58557176909478   -1.87606772905780    0.11441130176845
O          -1.88187532081173   -2.47524704934792   -0.01798223912102
O          -0.06130991396501   -1.38401451352465   -1.17342855012550
O          -0.46338060441220   -0.85594885905277    1.13638459844102
O           0.40430410409510   -3.04162552193072    0.55361220656017
H          -0.05155626516963   -3.82141988493863    0.25428901294002
O           3.31973774524364   -0.07315630500908    0.47824400745690
H           4.08864366029554    0.49148448599159    0.57187578926649
O           0.37524362959183    2.38682568358981    0.05756454149976
H           0.23008923527602    3.20534229649540   -0.41862745426279
O           1.51293911888607    0.48768877199531   -1.22551708524305
H           1.04645993839726    1.26024348524444   -0.74006701572640
H           2.30138633032442    0.21299469403902   -0.63105530610714
H           0.81888829641482   -0.35722651727988   -1.21176091632697
O          -1.88245663266898    1.34607088319101    0.60968468340642
H          -1.52098278913253    0.55045189687089    1.04088157174456
H          -0.55128240728768    2.02494296224374    0.28976944335660
H          -2.30281417535683    0.98253995836543   -0.20859683071927
O           1.46779522369522    0.68933340804521    2.13865056905441
H           2.71265920705928    0.13388313144711    1.24345294799389
H           1.13797066746828    1.51303858552501    1.75915927874692
H           0.77354263293027    0.02922069716492    1.94478410787732
N          -2.69025843394722   -0.12835052740017   -1.47884820806264
H          -3.61060903349926   -0.13769539434908   -1.90252421323855
H          -2.58122884578974   -0.99801169023323   -0.95888456654289
H          -2.00633361854342   -0.16529692809009   -2.22547166463629
