    26
        -50.44772978  Gyration_radius:  2.51296484122 Dipole_moment: 2.773
 S          -0.65517637935889   -1.74950290702661   -0.98784431067849
O           0.30937238337560   -2.47674406478026   -0.14434255833562
O          -1.96010806285309   -1.68626831266132   -0.37376689321864
O          -0.14070104062366   -0.46697900565539   -1.41184209823104
O          -0.80279293402638   -2.63184427833610   -2.29159989214432
H          -1.21550358138154   -3.41012706494948   -1.93285547820125
O           3.36771116593520   -0.11040366346429    0.52070204912614
H           3.98127193027587    0.41741264559531    1.03396964906232
O           0.02354435794659    0.89099183759122    1.97016386029562
H          -0.16005862334551    1.13075760936883    2.87980554095255
O          -2.22926836143715    0.64592877297672    0.85596202703552
H          -0.90002855805113    0.79037865742057    1.52136803655743
H          -2.19694190876709    1.24370401845706    0.07142240099175
H          -2.24806473381084   -0.25526699366775    0.47007989204869
O           1.39490208233640   -1.24440298785551    1.66941851324750
H           0.81020508721292   -0.41665337347915    1.82428892509180
H           0.90982745125840   -1.82687562612763    0.88512610691335
H           2.26179463847840   -0.89529172940763    1.24608533063166
O           1.46682018411042    1.42268555223415   -0.39230654016910
H           0.95094938482099    1.56590469974330    0.41332985000987
H           2.76478453340220    0.52651792898956    0.04388429214313
H           0.94267192618852    0.78028917573526   -0.90822964462836
N          -1.77753303219047    1.92285935097363   -1.48814157329454
H          -1.22773458659311    1.09530294133648   -1.71514738734410
H          -1.16621095907345    2.72559910677712   -1.57229262091599
H          -2.50373237406258    2.01202769011004   -2.18723747702759
