    26
        -50.45379116  Gyration_radius:  2.52440890651 Dipole_moment: 3.724
 S          -1.17065376733230    0.29276384706812    0.73373683051214
O          -0.42105572174669   -0.16340991127768    1.89328066474621
O          -0.40619406792000    1.36372596412103    0.03357256301093
O          -1.50968352681158   -0.77702842169125   -0.17505778946618
O          -2.48017710100849    0.96503471843201    1.20565023980326
H          -2.14727291240855    1.64171880458098    1.86654566873207
O           0.80362516736203    0.88268041757732   -3.19929491494759
H           0.11378141192758    1.54848192229106   -3.16237727584025
O           1.83330308799827   -1.90078368528014   -0.64796854948043
H           2.67767771944968   -2.29449748220917   -0.42246074205414
O           0.08450775455964   -2.62105126324667    1.12610402180588
H          -0.72737678558111   -2.71450238329329    0.61604868317469
H           1.18293742009796   -2.21319971342334    0.05109909614004
H          -0.03784311231169   -1.76477474078049    1.59268137529836
O           1.75979109148749    0.69437533232790   -0.85067819659745
H           1.82882659901747   -0.30388647277133   -0.73125567066701
H           1.53116245920170    0.83660089905622   -1.84344567256174
H           0.77160770927730    1.02206534049462   -0.36396358707219
O          -0.29471977963281   -1.38123883414792   -2.48438024230974
H          -0.86862817135247   -1.16209854525840   -1.72298682614892
H           0.34346220621107    0.00378684680598   -3.10678546278047
H           0.44948180950145   -1.86716382741608   -2.10865409755459
N          -1.06240313536486    2.42650336418771    2.81532039717406
H          -0.49863291857348    1.58223428434146    2.87332905081089
H          -1.20381019186198    2.79812887051203    3.74563715287227
H          -0.55171324427226    3.10553462904634    2.26630325341994
