    26
        -50.45379103  Gyration_radius:  2.52426794462 Dipole_moment: 3.725
 S           0.20292001161687   -0.67026404822085   -1.22628366837656
O           0.63812131085161   -1.27233103503747    0.06567531097403
O          -1.24816731082745   -0.70231677154348   -1.31529147198123
O           0.74836101322550    0.65727461267114   -1.38627864425601
O           0.80089142553127   -1.57872356794076   -2.32478619676529
H           0.32305601626615   -2.44632631903060   -2.16870154037445
O          -1.15306041410236    2.12697520069140    1.23848054072682
H          -1.93012138610145    2.44675877221257    1.69971205089825
O           2.24925256898848    0.65167200568860    2.48574647851401
H           2.82526009805466   -0.01506169001573    2.10592453996015
O           1.61632281584989    2.29224641009277    0.54939258952577
H           2.16301379982428    1.36615052379012    1.79658698075934
H           1.43492347440129    1.72186642930388   -0.22453178433311
H           0.75369360425251    2.62341699981671    0.82749162938876
O          -0.13579541428303   -0.12243262159804    2.06592943544521
H           0.79278710668336    0.16188276840861    2.40578247973299
H          -0.58204413020445    0.72811468644464    1.76050221266145
H           0.16078347497126   -0.70277151093684    1.12041064662367
O          -1.72877014783658    1.87634218977245   -1.27719467247545
H          -1.41114356612462    2.05683902220209    0.27002902747638
H          -0.90831326161884    2.11741201984700   -1.72080245487743
H          -1.74308658101175    0.89584624266676   -1.34392574808887
N          -0.76737825866266   -3.47744112414771   -1.50419313212646
H          -1.39786891738250   -2.69966846243487   -1.32657837282700
H          -0.42658758830768   -3.81259176135819   -0.61263783722510
H          -1.27704976405591   -4.22286897133572   -1.96045840899676
