    26
        -50.45379112  Gyration_radius:  2.52441482241 Dipole_moment: 3.722
 S          -0.61003145524509   -0.76980703420622   -1.01455919525272
O          -1.71123012583018   -0.92517195261535   -0.07765873283141
O          -0.31950266213031    0.67900359258596   -1.20918163793501
O           0.57832624591625   -1.48441103498164   -0.61146023075253
O          -1.04487557715486   -1.29141846264066   -2.40322308340579
H          -1.89580837697900   -0.78619464421194   -2.56476714996950
O           2.72485013268732    2.04761376257329   -0.20634167383080
H           2.61907626857888    2.05043944155595   -1.15994582020888
O           0.83996602289839    0.05506656463597    2.58563934607331
H           0.60339857782346    0.26976785127222    3.48939494110738
O           2.76861895239682   -0.45916492372221    0.53938282055256
H           2.06593660993425   -0.89691972803697    0.01812172355633
H           2.92369327267007    1.10436299207025    0.04585639270515
H           2.42623716740166   -0.41715329135382    1.44056184138118
O          -0.42769249869784   -2.09683563656709    1.88798361425599
H           0.34216804753836   -0.78746848384046    2.35844526245258
H          -1.07330174214026   -1.70947527865346    1.25631830991219
H           0.19939925252552   -2.55092263796175    1.31474469979497
O           0.38917325037402    1.88079685047584    0.78452806583083
H           1.33585597174097    2.11029415165281    0.45384664605014
H          -0.01939880181228    1.32483905404388   -0.13408250840969
H           0.51728406630316    1.19352662040243    1.51041743180678
N          -3.15672793479345    0.20673408514507   -2.22185603289815
H          -4.12092243354855    0.11151565658967   -2.51306408590038
H          -2.87561419832793    1.17210671864276   -2.33282537838013
H          -3.07887804212965   -0.03112424285005   -1.23627559571654
