    26
        -50.45381445  Gyration_radius:  2.64785105816 Dipole_moment: 1.725
 S          -0.55045296271998    0.50330114195412    0.29811946393746
O          -0.24579595163709   -0.72663257649031   -0.41267953987889
O          -0.92224801359809    1.58464554513030   -0.70909676595335
O          -1.81617553075732    0.30883511752907    1.11662396295330
O           0.51697113437617    0.98190055237721    1.13129342582338
O          -0.25516254648307   -2.88720010615297    1.17099536762988
H          -0.15748661830056   -2.14991780959512    0.53706687428099
H          -0.78829335225705   -3.55415286415672    0.73434853228436
O           0.79921172133628    1.15921158421291   -3.83294151242929
H           1.33788011325312    1.05172113044548   -3.00679219319505
H           0.72760623074195    2.10225619874588   -3.98932211959274
O           0.72000945980744    0.24038366821288    3.69650877131440
H           0.79909727241267    0.53797029728819    2.76907437421299
H           0.57049827239228    1.02974477382699    4.22013507777788
O          -1.39427242277239    0.20224224592974   -2.73528053162246
H          -1.07378017973339   -0.58369776962781   -2.27389135954321
H          -1.23394484038460    1.10453664065242   -1.57735928423869
H          -0.63997793169775    0.50757591415322   -3.30715389593438
O          -1.34649395736388   -1.26265649195318    2.97636614152755
H          -1.68196703601777   -0.36357311884136    1.94639598268024
H          -0.94686687401678   -2.00957882895789    2.47492296696010
H          -0.59365179564561   -0.80914446334845    3.42459749604820
N           1.98505464728396    0.82971093673806   -1.43303251377007
H           1.71595298358528    1.54845499174539   -0.77042623887277
H           2.97750240010215    0.66218690296613   -1.31589375008161
H           1.49678578808302   -0.00812359279826   -1.13257872230894
