    26
        -50.45301670  Gyration_radius:  2.45748945036 Dipole_moment: 2.638
 S           0.17118560083453   -1.26264955248019   -0.75350875695448
O           0.11973127915787   -0.62259826249523    0.56271088541163
O          -1.16220450406422   -1.51863612306971   -1.26103643990369
O           0.98368803351557   -0.46350831182866   -1.67154936755459
O           0.92175694929117   -2.61253988585088   -0.57841281083479
H           0.29753630763509   -3.14336681059516   -0.01285385366424
O          -0.07711566334853    2.85616245483719   -0.96085037135389
H          -0.15541255767775    3.42923192880750   -1.72547930868179
O           2.08114232716585    0.75004870624812    1.63193447430156
H           1.50053486132672   -0.00061243285779    1.37096806398572
O           2.12002405784132    1.51707178446953   -0.75940426062295
H           1.72290847946338    0.62378783956389   -1.20270788255114
H           1.33140128614877    2.14964850927296   -0.82409351059587
H           2.23058488968842    1.26460666814980    0.25926627922094
O          -1.90686450620039    0.98796401500296   -1.11009271362641
H          -1.65048820713510    0.05484902535610   -1.28823828127280
H          -2.41985703691651    0.96737282648267   -0.29844652824883
H          -0.75233419394655    2.13523189262616   -1.08544852436158
O          -0.42556300930604    1.82173928665778    1.73612896055283
H          -0.45677232070505    0.93374765708528    1.34242677708483
H           1.46055454146783    1.36106010805932    2.06853320687691
H          -0.45301010871394    2.44513049989676    1.00338334649072
N          -1.12197780640753   -3.46120882690494    0.80989159066526
H          -1.13622960113685   -2.96031877321081    1.68881294990537
H          -1.59623541467881   -4.34651973585266    0.93341003518879
H          -1.62698368328815   -2.90569450737403    0.12465604053851
