    26
        -50.45942956  Gyration_radius:  2.42419521057 Dipole_moment: 1.907
 S           1.42415083363225   -1.00548443385271    0.71951444435753
O           0.81729312778009   -1.30733084939576   -0.55713779137618
O           2.68245436515671   -0.27678953366298    0.60014893835616
O           0.50717087424392   -0.32529523448507    1.62351555687817
O           1.78336891106901   -2.39000828246249    1.38470143303233
H           2.34850040098244   -2.11546183290560    2.09870087525904
O           2.14300872185909    1.93641327040761   -0.44073816140165
H           2.52249786404079    1.06650633566744   -0.03741344862938
O          -1.64382361280212    1.77969436697041   -0.50943190005306
H          -2.46646208175184    2.21514035149960   -0.73340972806611
O           0.45557666954137    0.90166258822533   -1.96896032067662
H          -0.38529764112934    1.24411421439686   -1.60101347981850
H           1.50989799749552    1.59436463249083   -1.21694313584673
H           0.55356667849593   -0.00614165617111   -1.60781493121403
O          -2.09298841354426   -0.35947128991310    0.84628429346471
H          -1.21683060893635   -0.43043474788271    1.26580534548507
H          -1.89264521333610    0.94428666401649    0.00192838338452
H          -2.15012137509625   -1.13582040225563    0.24267305679443
O           0.34694008579158    2.30120244563027    1.25640061176866
H          -0.45766677317499    2.32410423135829    0.70016824674729
H           0.38448079278794    1.38306693032284    1.60293226696879
H           1.45821008506837    2.25822572235394    0.30083550494345
N          -1.80166250294345   -2.46716687971798   -0.84396277390068
H          -2.12658846262686   -2.48996691861851   -1.80234934465882
H          -1.89429907460061   -3.40125287406331   -0.46549353015316
H          -0.80873164799434   -2.23815683793645   -0.85894044163632
