    26
        -50.45301664  Gyration_radius:  2.45731398565 Dipole_moment: 2.639
 S           1.12189869200032    0.86681909665949    0.42795137292630
O           2.28054332292606    0.02122587754071    0.21971862740608
O           0.09341033580681    0.60867490250059   -0.58215808883546
O           0.55526565958344    0.73203781802579    1.77048539749973
O           1.54152610675766    2.35680518523226    0.28553775501786
H           1.98505669497667    2.37941513556758   -0.60550913527816
O          -2.44308463654577    1.21823826330448   -0.31934075483758
H          -1.48337566823420    1.28514642597750   -0.52714377284683
O          -1.45322913656069   -2.18866824194682    1.47731654843314
H          -1.44048592956828   -2.76719408388286    2.24172941788499
O           0.91460222365660   -2.20937710715001    0.35810402733310
H           0.83311912672269   -2.42053341037521   -0.57523989645343
H           1.49206067928027   -1.41394732481899    0.40304171155252
H          -0.52517817013578   -2.18616266772617    1.11685823808251
O          -1.86134194046629    0.31529115393916    1.95101002316800
H          -0.82096259742893    0.57907501973256    1.94797531022788
H          -2.23085154781631    0.73806245120520    1.05747292246517
H          -1.82204460571432   -0.68724794036932    1.81030305434468
O          -1.82318760152766   -1.26742377565109   -1.25743574499082
H          -2.71899015657930    0.43261029282595   -0.82506402728490
H          -1.01410299480190   -0.74172478130413   -1.14107031702913
H          -1.88835038002846   -1.84024623385099   -0.48675590732775
N           2.60517380382952    1.73827610821158   -2.01903207537580
H           1.85536916727012    1.52900278247810   -2.66526218405279
H           2.83241513427804    0.88476786874026   -1.51600294412958
H           3.41474442836377    2.03707719512128   -2.54748954792796
