    26
        -50.44772980  Gyration_radius:  2.51298204872 Dipole_moment: 2.774
 S           1.06655480919829   -1.74192473562792   -0.54242603018736
O          -0.11806786426179   -2.38519384059149   -1.05892070932067
O           1.72446319961990   -0.90970393896108   -1.56481210874510
O           0.85316779609776   -1.01506816037415    0.68862694051000
O           2.10715657318695   -2.88726742632151   -0.21771545921513
H           2.12195336699567   -3.35323513151272   -1.04679800764041
O           2.02476386462831    2.73897142437962   -0.15379810375149
H           1.87312381268311    3.68423425290429   -0.10882899282672
O          -1.44395631779177    1.38979966649201   -0.81187361452502
H          -2.13757954112158    1.81160914208668   -1.32141741973872
O           0.31397871147757    1.51742584259379    1.38840062378795
H           1.48277882666284    2.32277490263222    0.57391371251858
H          -0.49136814538780    1.59615882301752    0.85842094417436
H           0.59254727613538    0.58840898697515    1.27478365047858
O          -2.24735641488388   -0.96374805725754   -0.37385320429106
H          -1.77694553208708    0.42877880068990   -0.63825888794284
H          -1.54756704526243   -1.56040971061256   -0.71400340307376
H          -2.20377130913511   -1.07450337429100    0.60578908173032
O           0.85059334983664    1.34537178909274   -1.93604916742734
H           1.24725720485208    0.33710374126301   -1.81091964190280
H          -0.09195790611540    1.34194569252169   -1.53280274730777
H           1.41538227395546    1.93419202909008   -1.31400970589637
N          -1.58571348226105   -1.24833529415959    2.23585905636584
H          -1.61590424628191   -0.48542859465780    2.90084133199704
H          -0.63185018744332   -1.30720854552792    1.88183149369584
H          -1.78168309537956   -2.10474828361355    2.73802036844796
