    26
        -50.44772988  Gyration_radius:  2.51301144419 Dipole_moment: 2.775
 S           1.54377617016686   -1.32918602781403   -0.56158933032878
O           2.44749093296983   -0.45995196006115    0.21201326877781
O           1.00770342470313   -2.39737737495075    0.24804516293648
O           0.54106186580444   -0.56807936996559   -1.27196166239927
O           2.46397798758002   -2.00070392138315   -1.65811439440553
H           3.03034664029934   -2.53436416604772   -1.11114209976934
O           1.11693689003860    3.22127525320903   -0.05235301222205
H           0.76022974346888    4.05612589568946    0.25478508169230
O          -1.03599269106699    0.70097382374828    1.76386279557172
H          -1.41444766482275    0.79354112146382    2.63954883755509
O           1.44273295052731    1.29698015255937    1.58709726773452
H           1.43169946715072    2.11672779353936    0.97023619895955
H           0.46107699034267    1.02460518407191    1.70211053380020
H           1.91894404373948    0.50836008807806    1.00349267723886
O          -1.40292365489471   -1.70976355221515    1.10802687538802
H          -0.51936351104539   -2.07089816074246    0.88368087075999
H          -1.18711963990985   -0.28573622912937    1.50274090318462
H          -1.87566060297128   -1.67395318532050    0.24249925836141
O          -0.83571095695779    1.69749532438235   -0.86573945457653
H           0.37489238374265    2.74152660433367   -0.51693029533077
H          -0.34290766293096    0.91206032094264   -1.17214781301202
H          -1.21760830444085    1.42953706806886   -0.01838981686751
N          -2.22257616178077   -1.41926263828960   -1.45576496005410
H          -2.77768149137415   -0.63484061252187   -1.77460887345993
H          -2.46397676889443   -2.22081052794716   -2.02428004450221
H          -1.24490039962094   -1.19428089341054   -1.63511797501091
