    26
        -50.45381433  Gyration_radius:  2.64782447479 Dipole_moment: 1.725
 S          -0.54280120532183    0.51466353806637   -0.29378206928380
O          -1.78791067651766    0.35204861838164   -1.15002037895442
O          -0.25837903725296   -0.73995695505584    0.38137617494247
O           0.54612519735391    1.01878254910035   -1.08291378588080
O          -0.93771601372302    1.56158250431403    0.74062499702768
O           0.70643413774701    1.02313802366874    3.88938281843046
H           0.63339253202248    1.96043389084503    4.07652641625590
H           1.26495254311927    0.94256046711447    3.07337308758227
O           0.81071950877109    0.36812884798696   -3.66712450987374
H           0.67474212421429    1.17585000359065   -4.16585078707869
H           0.86758807886700    0.63248527470956   -2.72807092440213
O          -0.22856167503323   -2.84361625383871   -1.27695021000423
H          -0.14678590618326   -2.12922544478172   -0.61519340707283
H          -0.77198659828095   -3.52534415014532   -0.87739665430417
O          -1.27423187299619   -1.15540694241022   -3.05064211539048
H          -1.63406338955336   -0.29176110521823   -1.99887376105063
H          -0.51033841494619   -0.68784762164899   -3.46440781340733
H          -0.88751928162036   -1.91987336239122   -2.56578722538539
O          -1.46162641527933    0.11150884733358    2.70585023518690
H          -1.27133624980800    1.05285112734739    1.58403195992515
H          -1.13149261689710   -0.65882151575014    2.22531844256679
H          -0.72095247157272    0.39457710903754    3.30623923608043
N           1.95013038757644    0.77325510155385    1.50937279151020
H           2.94478770395064    0.60667614701176    1.41120654757195
H           1.69935588087620    1.51536980558424    0.86563751280583
H           1.46747371047322   -0.05205850442265    1.16807341219379
