    26
        -50.45567460  Gyration_radius:  2.46072833585 Dipole_moment: 5.091
 S           0.37955394754374   -1.89436114861300   -0.24205871250607
O          -0.36906662781037   -0.91838497786826    0.51119758564182
O           1.30215922727048   -1.15233075598394   -1.22947837323484
O           1.14485001484131   -2.80387771241771    0.55449331573150
O          -0.57586437862402   -2.66960273238141   -1.15368738851078
H          -1.06164180181205   -1.92095567599684   -1.69837755722646
O           1.55501607447736    1.40961703810499    1.76716902242065
H           2.39054638923728    1.79046589388679    2.04261550746321
O          -1.57123311863708    1.85170117413078   -0.91204223657928
H          -1.90642342268404    2.74138898722027   -1.03232091811747
O           1.10476787673711    1.33611134543641   -0.89929925075152
H           1.29508450456227    1.41530977885455    0.06024404767761
H           1.24378977192218   -0.12585657922728   -1.12180445720028
H           0.15266507456376    1.54017152682615   -0.99611363371001
O           1.69144399631666   -1.12441080761411    2.56784541333405
H           0.93981196702724   -1.29770829823111    3.13911269268305
H           1.62227126693404   -1.78288689667425    1.84875209332591
H           1.59174957215334    0.45701525058846    2.03257758498373
O          -1.25775093764382    1.32040418600139    1.64423086596573
H          -1.10112554636007    0.39119325922598    1.40277611843440
H          -0.37721918908133    1.64676972035566    1.87576498621072
H          -1.57387390423683    1.68120655844793    0.06890143635169
N          -1.58012100697122   -0.69295695699876   -2.42960964974881
H          -2.47118902323517   -0.84541092475876   -2.88376889143946
H          -0.89509870276406   -0.44277670762727   -3.13151219451510
H          -1.67310203372358    0.09016547531294   -1.78560739668399
