    26
        -50.45567461  Gyration_radius:  2.46084519425 Dipole_moment: 5.087
 S          -0.36908402858878   -1.72828770631995   -0.81700513601267
O           0.17783025275583   -2.03868406680628    0.59059901592693
O          -0.35519465775127   -0.29930555844432   -1.01196467968008
O           0.35770154295993   -2.47177931218264   -1.80013114349121
O          -1.81966054221355   -2.21573920416233   -0.75610488767068
H          -2.24703384943389   -1.63013602197131   -0.00333681150870
O           2.53597437733959    1.02210976346923   -0.23726915170303
H           3.47603205304091    1.00495449064101   -0.05010536807049
O          -1.16686814146860    1.81540286013145    1.43938452328208
H          -1.23228578456053    2.60894376429993    1.97263891353742
O           2.24341273473911   -0.63595654055171   -2.29795783346551
H           1.65754557427022   -1.39934523337263   -2.12636351346900
H           1.82226633756124   -0.15278008638302   -3.01244155376846
H           2.39807016733870    0.39143283566703   -0.98719616079709
O           0.92070454180003    0.08556941157711    1.72002452565466
H           0.49064527262452   -1.18584999597539    1.08404159891203
H           1.54147392540993    0.44847061818070    1.05203056971147
H           0.14227761671966    0.67816780241022    1.70474488157966
O           0.09992321099632    2.31573367654325   -0.81028099908769
H          -0.16188347835460    1.43187987663703   -1.12090347154219
H          -0.77351981077964    2.09447731247768    0.56834069398742
H           1.04121904633462    2.21736889808313   -0.61095059106356
N          -2.64087006096512   -0.74071044778041    1.16637594578971
H          -3.63960171737933   -0.59704127470404    1.23974140584773
H          -2.18644756989966    0.16720031705249    1.09015969941280
H          -2.31262701249780   -1.18609616851193    2.01392952769186
