    26
        -50.45567460  Gyration_radius:  2.46072666024 Dipole_moment: 5.089
 S          -1.76061286604836   -0.71901861067789   -0.41806250978754
O          -0.65406707604600    0.07145030405121   -0.89876642394528
O          -1.47595464638459   -1.12875168327962    1.04071342514868
O          -3.03593513706524   -0.07623305895776   -0.50646861910670
O          -1.79129342699599   -2.05349643379611   -1.16846910061029
H          -0.83168522148805   -2.44230821764560   -1.02266992739268
O           2.50445024223947   -0.66704777185216   -0.11181708359920
H           3.44544108764750   -0.58444586689029    0.04971974180006
O           0.13525313367392    2.47616286120756    1.17387810264036
H          -0.01544430625989    3.07477920776527    1.90736503275971
O          -2.18481408340333    2.43490017213041   -0.12877139412543
H          -0.72434177329824    2.42441399961574    0.68641896796451
H          -2.02148874196067    2.69506209362411   -1.03816017281110
H          -2.60352672044183    1.55354906976603   -0.18695950938965
O           1.53638404511125    1.57114659342125   -1.09607683786104
H           0.70529834294566    1.09891153451456   -1.27647602515108
H           1.32236271839428    2.12457415686056   -0.33227867748166
H           2.22492399918129    0.16895932367783   -0.57470443807993
O           0.67918420874693   -0.09172906197023    1.82847363187563
H           0.51324163018784    0.85679045614410    1.63878656340394
H          -0.59503149790223   -0.72058597030219    1.39556545733344
H           1.35876058647587   -0.37369437865345    1.18334706550505
N           0.57489106823614   -2.85683353114601   -0.62164913791362
H           0.52811729419260   -3.22689990376755    0.31930925792619
H           1.19368300728037   -2.04833938698869   -0.61282439332872
H           0.97220411302632   -3.56131590686814   -1.22942297573967
