    26
        -50.44772980  Gyration_radius:  2.5129909465 Dipole_moment: 2.774
 S           0.70364457489962   -0.13839264686346   -1.98774119981429
O          -0.47899816847061    0.49563560389720   -2.51997676776626
O           1.72374653864606    0.85071540950979   -1.59811023499873
O           0.43846393642328   -1.08515464388157   -0.92817768699698
O           1.35962576759404   -0.95563233933879   -3.17177458689511
H           1.42185720523009   -0.28093166788739   -3.83935015934583
O          -0.88820783752213    1.42998738056443    1.35730760959835
H          -1.35061994297479    2.17488458350892    1.74452944115814
O           2.61074572380827    0.25917296618043    2.17776094863507
H           2.68355170966202    0.46469358002983    3.11102199443995
O           0.39558668237600   -1.04857796829598    1.75335833948548
H           1.85622146767008   -0.38720998271557    2.08059120635558
H          -0.25120817717560   -0.33355007175882    1.83119721904885
H           0.46086107043428   -1.21688898067610    0.79366641070669
O           1.50080348792396    1.91797160258614    0.59236751405335
H           2.06019928464914    1.32372415670317    1.21414850204185
H           1.61384403882469    1.47792858304224   -0.39914521283079
H           0.52549547946283    1.76797259303538    0.87044245608080
O          -2.29801895097119    0.68929523735482   -0.60236380251565
H          -2.47049032415499   -0.27030707006785   -0.44975930709789
H          -1.46758690527274    1.13368304506534    0.55660091256156
H          -1.70903857948884    0.70536037541334   -1.38611581861218
N          -2.23533924323366   -1.99867616979740   -0.28587880183416
H          -2.20970960534623   -2.44911148187719    0.62057201355502
H          -1.27333859376341   -1.91172789285454   -0.61095501023083
H          -2.72209063620243   -2.61486424353295   -0.92421598799407
