    26
        -50.45381454  Gyration_radius:  2.64840469225 Dipole_moment: 1.738
 S          -0.19856896930045    0.71949177352523    0.29279012129901
O           0.37235680641376    1.23851269117246   -0.91852315726603
O          -1.70701754517167    0.93370556412433    0.26710428403744
O           0.07984012073608   -0.68703390139749    0.52746979913394
O           0.27013590851324    1.52948424868915    1.49030972898710
O           2.60573581887629   -1.14289062715644    1.29465496578358
H           2.56703696674746   -1.70921842250600    2.06763359476922
H           1.69330831333304   -1.07876734463147    0.95062729180745
O          -3.45241394949290   -1.95373887565421   -0.97625513761448
H          -4.16881303517609   -1.38853697546492   -1.26976835896259
H          -2.64500466524475   -1.66645476517957   -1.47589805895000
O           2.82060121758801    2.32346076314728   -0.95265826666990
H           2.70267442296019    3.25449505087155   -1.14987109404720
H           1.95032730069479    1.90150488165218   -1.09231225488358
O          -2.50117967557277   -1.17188459984089    1.35104023670900
H          -1.59964941801644   -1.51879333686310    1.33711151674538
H          -2.13999059139930    0.14489144762085    0.78837736230217
H          -2.96146116155036   -1.58217189353354    0.57060394272072
O           2.74825356783922    1.50154904043474    1.57047747062023
H           2.97320869990182    1.85669591061911    0.67789890390153
H           1.34223276494353    1.56173072538886    1.58381929268649
H           2.91116094553252    0.53204952980569    1.52020329765845
N          -1.17702021192884   -1.00662253361707   -2.07250278246407
H          -0.53792939927191   -1.22532416226399   -1.31467801577887
H          -1.17540131184320    0.00502063987175   -2.14064212745014
H          -0.77242292011269   -1.37115481877028   -2.92701252508550
