    26
        -50.45567461  Gyration_radius:  2.46074316242 Dipole_moment: 5.091
 S           0.95190976846743   -1.63777637563290   -0.45003862358029
O           1.07794556985626   -1.48649396206308    1.07901507464287
O           0.23005168903859   -0.50132827924549   -0.96751658785142
O           2.24414352419656   -1.83862200093353   -1.03074945493396
O           0.09808320625018   -2.89768286275426   -0.61895903996195
H          -0.80215894420641   -2.65274331389111   -0.14714761697428
O           1.43989126034449    2.33196051053964    0.13077765844639
H           2.10414803076476    2.89563976960267    0.53086304917685
O          -2.37519330396498    0.81026968884718    0.65620876664108
H          -3.04273451857619    1.42845238241926    0.95721706617562
O           0.08752877474004    0.70714259219429    1.81876219014248
H          -0.83116630690280    0.70834797753814    1.48187424996047
H           0.67820076417075   -0.59513322987619    1.41714465139476
H           0.57803941735535    1.33806229005148    1.24906223306485
O          -0.94926323908107    1.86373538450814   -1.28596418221739
H          -1.94458345349724    1.22755389839068   -0.13865068887081
H          -0.24266533594478    2.36318986386850   -0.85383201718707
H          -0.55340273242050    0.98728924414284   -1.43225260190167
O           2.82088550826083    0.73616337493209   -1.49004108172037
H           2.74374792484681   -0.21664379458508   -1.28584207615219
H           2.46552194241271    0.83176674753391   -2.37655746771464
H           1.93343863845074    1.71017019602993   -0.46002581897745
N          -1.98290077264274   -2.12654609798707    0.65337762562248
H          -2.11786574052821   -1.13326673679274    0.47480435929750
H          -1.76336731214973   -2.24226506621330    1.63468970335022
H          -2.84823436923372   -2.61124221063819    0.45378064012946
