    26
        -50.45381435  Gyration_radius:  2.64834073968 Dipole_moment: 1.736
 S          -0.34259721930839   -0.62022370329610   -0.37503282246582
O          -0.49006183642654    0.63267077775300    0.34554620385433
O          -0.59220713832385   -1.78006457390790    0.58125813118449
O          -1.45601241943330   -0.74132514916158   -1.40250899441647
O           0.93842710933496   -0.79248525741556   -1.00099493396052
O          -0.77021582618165    2.74718057246017   -1.27450330495613
H          -0.60102296385210    2.04765855693103   -0.61330230106853
H          -1.52073810893757    3.25059256590838   -0.95356207093764
O           1.38078704825764    0.01441637248116   -3.51612136252584
H           1.37409152374293   -0.26687701121169   -2.58030364849269
H           1.52580315688092   -0.77930133344134   -4.03438901209181
O           0.39135466784172   -0.97951258437534    3.94643816937434
H           1.01954888810709   -0.72537873848845    3.22187815931169
H           0.53965770183244   -1.91047276213868    4.12016953756797
O          -1.74835851651198   -0.60505987611420    2.45809159569010
H          -1.56603630901886    0.24560332091381    2.03805937165963
H          -1.16253462424119   -1.41353492189684    1.36973581396970
H          -1.05262699422092   -0.71506143975052    3.16017866746338
O          -1.08971406311854    0.93149940812667   -3.19585600280435
H          -0.18160534470739    0.69180958900623   -3.49810916637958
H          -1.35709803056598   -0.04182090469758   -2.21481375017765
H          -0.98360879276600    1.74614216746932   -2.65357928987087
N           1.85177895071560   -0.32223917375417    1.77594697702400
H           2.77404212921379    0.09467841259049    1.82504561118474
H           1.22628081051967    0.36742192561825    1.37132536807617
H           1.89266619115270   -1.07631623964883    1.09940306378668
