    26
        -50.45567463  Gyration_radius:  2.46075992123 Dipole_moment: 5.088
 S           0.83335881498716   -1.55966232855020   -0.81508150307441
O           0.72064035805950   -1.88206535981632    0.68832415920497
O           0.33186167264262   -0.22600541664679   -1.03906262837727
O           2.17492807002066   -1.77579320838794   -1.26335644168497
O          -0.10995948265968   -2.57082799801806   -1.47287696957326
H          -1.04439308443588   -2.34076077568219   -1.06436003076458
O           1.63771200724759    1.94602415798591    1.02868922381345
H           2.28250588899671    2.26099083932603    1.66434619117626
O          -2.35156538189969    0.93417921293742    0.57280543958275
H          -2.98981797801210    1.53139897701617    0.96564160236411
O           3.09093421261864    0.70173403668612   -0.82077958275874
H           2.15345700128174    1.45615463780970    0.34071282158288
H           2.87970595151224   -0.24578555371089   -0.93514652617627
H           2.90114396803449    1.10488314459896   -1.67095533806989
O          -0.14003562017172    0.12379212944997    1.94371246359913
H           0.36738750008304   -1.07836229422944    1.23408267181260
H           0.50214115557590    0.81158011280537    1.66481900123424
H          -0.98496051781196    0.36256114824564    1.51173624637121
O          -0.52021652065309    2.27939991692645   -0.75071530952433
H          -0.20112790305077    1.43442941651604   -1.11188669631180
H          -1.75356389107956    1.49488137072012    0.00768723321153
H           0.15432543911397    2.51772655457262   -0.09981677899300
N          -2.27791394209138   -1.89848441691282   -0.29309792029780
H          -3.14547012667359   -2.16814459828228   -0.73827699005718
H          -2.27585244511524   -0.88772486162659   -0.17046970474348
H          -2.23522514651446   -2.32611883375510    0.62332535643963
