    26
        -50.45567461  Gyration_radius:  2.46073690655 Dipole_moment: 5.089
 S          -0.03772149761578   -0.49429063653082   -1.88305502138910
O           1.42134483807670   -0.69314174236656   -1.42641785942790
O          -0.80139642686911    0.02147165125050   -0.77348359676895
O          -0.07609553189993    0.31601140652160   -3.06176558979129
O          -0.51180882745555   -1.91420952914039   -2.20553371061366
H          -0.42356559033483   -2.41840094375631   -1.29381609237330
O           0.65643896481852    2.58573724861156    0.64064735367371
H           1.27700024771036    3.31496294122010    0.68746363295200
O          -0.31479494415525   -1.06003243735878    2.34678131014312
H          -0.29806148998009   -1.09990815723921    3.30412200705413
O          -1.56693732521405    1.10500186305235    1.53430865660047
H          -1.54315447552975    0.74524303399567    0.63083642457516
H          -0.88602076627329   -0.28012943553146    2.10850781745213
H          -0.89994181290753    1.80523243276304    1.51793601806441
O          -0.29538570767403    2.69040590466784   -1.84216303249796
H           0.30597754683381    2.58821633698739   -0.28476536685495
H          -0.13010302684054    1.88828426084611   -2.37579668878034
H          -1.25104099599272    2.76572618853781   -1.79274247788508
O           1.70633739790529    0.11086484308001    0.94274797624852
H           1.04184505074998   -0.37809820963542    1.46894229625093
H           1.57276286531531   -0.37433269895957   -0.45483971765264
H           1.36456572778246    1.02826320736323    0.87364744979097
N          -0.14126397839944   -2.97486966924734    0.09253003853191
H           0.85049517695505   -3.16962718890983    0.14770825330098
H          -0.65185725140256   -3.82489516608332    0.29333657195626
H          -0.36761818759787   -2.28348552413573    0.80486334741700
