    26
        -50.45567414  Gyration_radius:  2.46105380146 Dipole_moment: 5.091
 S           1.14667774863479   -0.50928604058298   -1.48687823535460
O           0.45545083113238   -1.80930026691754   -1.02989441296327
O           0.72327925377653    0.56590127237264   -0.62365233192385
O           2.56333306181355   -0.70200709470964   -1.54842228376537
O           0.58605198537354   -0.27838437009363   -2.89314086847624
H          -0.44197801606402   -0.17339191747756   -2.73535274115825
O           1.02259505584616   -0.19325050511987    2.54114249069463
H           1.35167294975366   -0.69964699476741    3.28568217518911
O          -2.42304311641148    0.79431407934412    0.46744318987869
H          -3.19014180234129    1.02573628672567    0.99308797170579
O           3.13522058737712    0.08284061542578    0.94735284249008
H           3.02286604694408   -0.30171339220768    0.05568563532188
H           3.27662488096570    1.02060556565627    0.79937285821864
H           1.78709061809856   -0.09782625816235    1.91996560768203
O          -0.27706783283598    2.01508038731613    1.37249915931116
H           0.19287031764214    1.71945134847532    0.57371996696849
H          -1.67509127308172    1.36295103135916    0.79698933882690
H           0.07792873357735    1.44538526061331    2.06891040828635
O          -0.89517762739181   -1.38606925805108    1.05222530249645
H          -1.51331039730837   -0.66459579676510    0.81845685623221
H          -0.10919874939361   -1.67078381927818   -0.17491286457383
H          -0.22270909682100   -0.97751597357170    1.63892385275966
N          -1.89758846425632   -0.13551269888571   -2.29644966779367
H          -2.20942496990413   -1.09260384133659   -2.19053856570343
H          -2.50242709547523    0.33265582034201   -2.95871264784745
H          -1.98450362965864    0.32696652029922   -1.39350303650032
