    26
        -50.45567407  Gyration_radius:  2.46123951049 Dipole_moment: 5.090
 S          -0.87013660285020   -0.98499320569055   -1.43466970869433
O           0.07320984393909    0.05530941655709   -1.10542895980110
O          -1.49630810701841   -1.51346628562966   -0.12877312561836
O          -1.89889724078110   -0.59016569425374   -2.34772472136344
O          -0.11341497242134   -2.19609918597819   -1.98760681215139
H           0.59001747407759   -2.40977650890851   -1.24441465576413
O          -1.20248767808238    2.29938123889163    0.89726550252912
H          -1.91552023491529    2.76586612565906    1.33661117594958
O           2.05565433054240   -0.16539001663894    1.57142942149046
H           2.62632346005396    0.07178612682506    2.30384968124148
O           1.48237533570740    1.95159829139536    0.12104844929712
H           1.09040892319407    1.35680022116334   -0.54141051283657
H           0.71367897960745    2.36082815213110    0.54198286952849
H           1.96236441530068    0.65287595556738    1.01184392555475
O          -0.65713896947056   -0.17911173221676    1.83441091345292
H           0.31811661633780   -0.24942837547032    1.79890542268233
H          -0.86605422022095    0.73622966870810    1.54838695416872
H          -1.17188959855175   -0.98674499412946    0.69962238083467
O          -2.07049878282005    1.97483564781378   -1.59719886278160
H          -1.42683774801009    2.36685747624702   -2.19160357383055
H          -2.14585077919576    1.04274630368941   -1.88201337011155
H          -1.51170546800806    2.14457578451134   -0.02991514963903
N           1.46864791143057   -2.59635721280378   -0.01730926241174
H           1.72694956103121   -1.69289420006153    0.37492504872577
H           2.31349701094004   -3.11941833228466   -0.20777640615209
H           0.92549655017120   -3.09584465512376    0.67556337570530
