    26
        -50.46489364  Gyration_radius:  2.55383303536 Dipole_moment: 4.633
 S          -0.42188066425516   -0.70009809669997   -0.11760657938656
O          -1.57639163517075   -1.43680947116680    0.56180250751154
O          -0.00658492763729   -1.46682524362869   -1.27491330297950
O          -0.86231869730419    0.64408275582755   -0.49171489778476
O           0.69850291147087   -0.61371427437091    0.84677404072145
O           0.33899713091534   -0.92167355438245    3.47718407617287
H           0.40504741570753   -1.86867019348103    3.61111967795928
H           0.57411047953445   -0.76107465439581    2.54066251121362
O           0.22388653635618   -0.43446413395708   -3.69104141005902
H           0.09065373052139   -0.90429879617087   -2.83639608437168
H          -0.60914038186756   -0.50367737763996   -4.15923262095681
O          -1.67229212729551    2.18080355153649    1.49207658009913
H          -2.41597533175855    2.68140753693628    1.15245771278124
H          -1.31175961355592    1.67706860919779    0.72941263481326
O           0.96963143457814    1.59104851613852   -2.12480405591035
H           0.21934066740539    1.43263457551287   -1.50614529763606
H           1.94440320440129    0.65064441746827   -1.50222385320518
H           0.72517432241931    1.07586452391478   -2.92291293696280
O          -2.11350419454713   -0.17280867800979    2.67415246468150
H          -2.02030473776061    0.76688320096875    2.40032136993311
H          -1.85332472843943   -0.93255206884856    1.42443931118528
H          -1.30726982986826   -0.37528061238926    3.19442066738645
N           2.43197836495481   -0.19702543675958   -0.99601196252849
H           1.81866028068180   -0.37601889645634   -0.12610764591383
H           3.40384786723710   -0.01953991759989   -0.76259721403906
H           2.32651252328529   -1.01590632154279   -1.59311568272435
