    26
        -50.46814358  Gyration_radius:  2.48756072519 Dipole_moment: 4.362
 S           0.86164342539889    0.45381085805362    0.98787369426700
O          -0.12511728491305    1.19884116476305    0.17223744090269
O           0.87213313902886   -0.94811042570006    0.55044316864802
O           2.17060915216896    1.05035767129986    0.90995129193482
O           0.38355525142579    0.51143160102618    2.44573416717269
O          -1.39214949184147   -2.24197740871256    0.70090931710105
H          -1.25012210131716   -3.03547594914173    1.21996210999347
H          -0.52621815866598   -1.76547759925142    0.68885098981091
O          -2.59380422645621    1.92230036846635    0.83727071466522
H          -2.52653457117976    2.75483471443956    1.30778431799674
H          -1.69250077693573    1.72066358434901    0.51001407729266
O           0.22089171957122   -1.94531399737761   -1.83269046976027
H          -0.65939327298339   -2.25900360555819   -1.60191411550524
H           0.63370019777874   -1.72627768254444   -0.97022690117534
O          -2.05965073800178   -0.22068850518145    2.37712020758879
H          -2.04922432767519   -0.98393675946160    1.76651095115445
H          -0.58716742997567    0.20982804798169    2.47276916187176
H          -2.47311395522301    0.51586981220872    1.88047657111597
O           3.14134640310396    0.75531014453467   -1.47821170100941
H           3.63336069360517   -0.06676591473955   -1.43072852290437
H           1.66647346191749    0.71839807623745   -2.12662187643767
H           2.87360994884209    0.95611181174294   -0.54353774994295
N           0.61613739291201    0.64103744805408   -2.23260120406035
H           0.22524602504068    0.96176824805979   -1.28756185386764
H           0.37069859277767   -0.37806649697453   -2.32178104870687
H           0.26559093159570    1.20053082341927   -3.00203272814083
