    26
        -50.44612494  Gyration_radius:  2.48574800092 Dipole_moment: 2.143
 S           0.79427691921707    1.68283893520666    1.23387934104840
O           0.58645213879542    1.15387066794224   -0.09379643148848
O          -0.39745934134048    2.16075813439281    1.88836633146552
O           1.54550064679596    0.72419256464241    2.05980744881153
O           1.75097177438631    2.94396848931090    1.06532520943346
H           1.72966603062907    3.34522507583453    1.92888970838362
O          -0.83368425863668   -1.95780573071060    0.64778339087804
H          -1.11621059527909   -2.53914888421111    1.35490508977734
O           2.07474772028923   -1.08722768019932   -1.72528655452109
H           2.50828717747718   -1.85349746878098   -2.10581804697753
O          -1.33142948450338    1.13248545638163   -1.87411418874280
H          -1.07838126062990    1.71822680583763   -2.58912711634378
H          -0.61913847966151    1.21328746476890   -1.19703181230764
O          -0.48960614304638   -1.43750606064886   -2.12177875528785
H           1.11230996775531   -1.14781749899363   -1.98448869832610
H          -0.73684346248266   -1.79621206183720   -1.25904674604027
H          -0.88204310138596   -0.54119379683406   -2.14432270665091
O           1.65857070994924   -1.35608733389443    0.76705110578493
H           0.67061881304677   -1.61629889707802    0.73444994021604
H           1.90858990383679   -1.13926997129608   -0.21222607469663
H           1.67828523128915   -0.44002430605596    1.33346447982570
N          -2.17553516235085    0.22420317640353    0.88530112555915
H          -1.37312047479163   -1.07697811837596    0.75526964233662
H          -2.35908853199393    0.55168417809431   -0.05756701915393
H          -3.05471740958205    0.21408829283123    1.38747770124548
H          -1.57101931781109    0.92423854726326    1.32263362575782
