    26
        -50.46459333  Gyration_radius:  2.48531015552 Dipole_moment: 3.592
 S          -1.74414500022189    0.15883507078282    0.80906028275933
O          -2.40476548670949    0.16791660404575   -0.47420119011405
O          -1.06880703467524   -1.08397391136559    1.11560438904594
O          -0.83360250510192    1.29388052148578    1.00003621268368
O          -2.89300273606515    0.36231443382331    1.88519927488699
H          -3.63119645345696   -0.01645729482866    1.42079301560764
O           1.34166996473689   -1.97536201472569    2.10344457378729
H           0.40640064940692   -1.82653582807415    2.30245323835921
O           1.60664409594101   -0.46606054243584   -1.69509616170024
H           2.21417099060092   -0.35681093352401   -2.42743618992825
O          -0.35017959333411    3.02959521862074   -0.96376294044685
H          -0.55389212034699    2.47253318225225   -0.18400955632386
H          -1.08465999016339    3.63842058021086   -1.05499013583380
O          -0.58926311351346    0.70130827480745   -2.34492846569640
H           0.73377361895914   -0.05742492013273   -1.99412538349294
H          -1.32671550568286    0.40143976195164   -1.77535825449087
H          -0.43499649273460    1.62592018102403   -2.07080237141452
O           0.59681785621789   -2.72712604166664   -0.34021547345799
H           1.30095085879615   -2.51100286327998    1.27842649243677
H          -0.19966140472758   -2.28646756081324   -0.00220216294242
H           0.98452468097107   -2.10627979638877   -0.97255210864602
N           1.60921867622602    0.32908519274189    0.88110027098434
H           1.73903439402519    0.08299828846091   -0.12672463631334
H           1.61128663913030   -0.58349995294904    1.44934888605801
H           2.32338234990394    0.97698996462509    1.19582369069543
H           0.64701265179107    0.75576439535047    0.98511472344172
