    26
        -50.46459341  Gyration_radius:  2.48530996026 Dipole_moment: 3.591
 S          -1.02203348664309    0.90288230513311    1.36450925301155
O          -1.53276083399992    1.87380619513186    0.42656474964743
O          -1.45868318222095   -0.45257974666587    1.10629379056429
O           0.43768797205769    0.94895551885506    1.50914811649956
O          -1.59348081129384    1.33258092561518    2.78159921455116
H          -2.39716711069452    1.76658075822875    2.51738860607742
O          -0.42546666709364   -3.00097984590869    0.96894299622761
H          -0.93988115054488   -2.37875181864477    1.50249802001491
O           0.65687942762466   -0.63971599133146   -2.19817534971306
H           1.11044204603507   -0.66162725673724   -3.04147813698253
O           1.93091840203408    2.55021708525375   -0.01049743792349
H           1.42702095649903    2.00587547450287    0.62950724039431
H           1.87329350689338    3.45333815293483    0.30493120073298
O          -1.61246709171358   -1.97742474798598   -1.18404461591040
H          -0.92838158626571   -1.57440608634077   -1.73650704204883
H          -0.88984623826228   -2.97174806471488    0.10137514018273
H          -1.81128852694889   -1.31854433839694   -0.49910377668496
O          -0.01286636550578    1.80231227050283   -1.75626636960494
H           0.34765184320784    0.31262767428568   -2.07308983997350
H          -0.70171306925541    1.85727641256379   -1.06299667559595
H           0.78442402974216    2.17442466956934   -1.33232577118161
N           1.37984906214040   -1.20724143959911    0.33641177719576
H           1.04601095685256   -0.35210789823938    0.86179142329049
H           0.74270188434731   -2.02294877482695    0.62674000596665
H           1.23326006831245   -1.02935013435514   -0.68340051081913
H           2.35589599468440   -1.39345127878528    0.54018400218355
