    26
        -50.46459305  Gyration_radius:  2.48528744389 Dipole_moment: 3.597
 S          -0.20197834909833   -1.85095292569368    0.50589383434386
O          -1.38942416435989   -1.27889762346993   -0.09175401403826
O           0.79011859527421   -2.27883122183280   -0.45117693161850
O           0.33478672366467   -0.95114551675138    1.53364115186486
O          -0.63789609143183   -3.16168107728098    1.28769441467689
H          -0.47374701877625   -3.82019147088561    0.62172212037647
O          -3.04634585526689    0.90127067957241    0.19921129360730
H          -2.94819135194301   -0.04898278910109    0.35360265117071
O           0.62003501648588    1.85551063835636   -1.35722615886183
H           1.11769487817437    2.58283905008270   -1.73230497133020
O           2.85213017113356   -0.08133086723686    1.44241503340344
H           1.94720290906015   -0.43412050633961    1.57091494909252
H           3.45040105374772   -0.76779665874751    1.74119782260912
O           2.21128949839384   -0.15665638851022   -1.19762297642411
H           1.70860423106152   -0.98910138577918   -1.08569822138277
H           1.24228098320353    1.06102395234443   -1.36149488072693
H           2.64820326274773   -0.02211851580063   -0.33457854413219
O          -1.76943640979293    0.55578444200174   -2.11183915564009
H          -1.58087777285729   -0.27179607355149   -1.64023653249195
H          -2.84321567174528    0.98282227039305   -0.76068907848651
H          -0.94772435812366    1.06480590220582   -2.07548672379967
N          -0.61114947349631    1.44459067383525    1.00586717411031
H          -1.64944063697312    1.32128338656802    0.75585452589688
H          -0.47534454014158    2.11478553976009    1.75503694228075
H          -0.24563372777189    0.49266358187554    1.28675666947126
H          -0.10234190109015    1.73622293391564    0.14029962602606
