    26
        -50.46495533  Gyration_radius:  2.44076181515 Dipole_moment: 5.151
 S          -0.41735003988251    1.26864035336482    1.24421982608060
O          -0.39416691326186   -0.18843019799699    1.47967878916734
O          -0.45445260358899    1.51515320966686   -0.20770273805345
O          -1.47428225570491    1.92767654555834    1.95088641842816
O           0.94421559559775    1.82394710283835    1.76029765167728
H           1.66729561809951    1.36766824083938    1.26498937494917
O           0.43470225376331   -1.80418479531871   -1.94408251443589
H           0.74961323285782   -2.26215368487998   -2.72391025075926
O           2.87058402455939    0.46969836026136    0.52573286407637
H           3.63466056751381    0.48166731563381    1.10449035970190
O          -3.49651592208314    0.63355916216446    0.73636803130252
H          -2.78580217937921    1.12313905033190    1.19700569398030
H          -4.31184874507224    0.97043508289199    1.11213674973374
O           1.41205511079548    0.61744762911523   -1.85273730079543
H           0.83329914981800   -0.88669046810449   -1.97936932808847
H           0.72394797631428    1.08664567558057   -1.33272935465827
H           2.19703114048189    0.65369165732586   -1.29170588102188
O           1.56121635518977   -1.77421199773345    0.66198204922791
H           2.47878301439433   -0.44939716891243    0.58873399488122
H           0.82822005154681   -1.30541065014927    1.11445744326235
H           1.21977967572343   -1.99924726175694   -0.21699286601420
N          -1.67711126114800   -0.69588434240261   -0.67907743482692
H          -1.30425973189055   -0.80461591108828    0.30710370332158
H          -2.69427109415843   -0.74180287781542   -0.66920998232786
H          -1.36485794640402    0.30190249963596   -0.82495680016210
H          -1.18048507407814   -1.32924251904431   -1.32560850864850
