    26
        -50.45793255  Gyration_radius:  2.46058507822 Dipole_moment: 5.060
 S          -0.06143028418639    0.21877345360757    0.98886519524605
O           0.38436412369644   -1.15434882953573    0.86215039432310
O          -1.25073130269149    0.40210745016342    1.77939447224718
O           1.13581655355587    0.98354421102286    1.65871286473389
O          -0.20488831870558    0.84687373238156   -0.34632931190227
O          -2.26600776748850   -1.95975896496989    0.86310444312880
H          -2.18831150260263   -1.11660139748471    1.33753917483313
H          -1.38477938167309   -2.34429851463846    0.92955417289927
O           2.85312053783984   -0.85935552875085    0.14399673248325
H           1.98664392741344   -1.16316221478592    0.51201501799539
H           3.12757706913947   -0.14356991620463    0.72385961330709
O          -1.90190360613570   -0.89019867569504   -1.57561379943683
H          -2.21448008885222   -1.40775261897633   -0.80248528751114
H          -1.46361798817945   -0.11448035447525   -1.18781449038469
O           0.16856518099866   -1.85033517184342   -2.79154257167539
H          -0.02362449021529   -1.80567179654292   -3.73021394637647
H          -0.68391858637526   -1.59650351274148   -2.31884602766022
O           1.57417566950456    0.01814720276899   -1.86239351635163
H           1.07656023525054   -0.79673593753360   -2.30020618255782
H           0.82219278085825    0.45868930602822   -1.26180490272169
H           2.22863973633269   -0.36493892003996   -1.16414859702809
N          -0.37433976955393    3.07702099799594    1.93340854583091
H          -0.48211795325805    3.73468724898729    2.69495620663637
H          -1.10025824618253    2.36728494921575    2.00502803657807
H          -0.50683752652271    3.57063469779218    1.06017980404000
H           0.74959098802164    1.88994910424966    1.84863396932777
