    26
        -50.45793255  Gyration_radius:  2.46075176645 Dipole_moment: 5.060
 S           0.64794473477505   -0.76650465049717   -0.14533840777217
O          -0.80417940251748   -0.47018509539708   -0.10851872148782
O           0.91601815412815   -1.24676120516760   -1.61656551782444
O           1.42141583658973    0.44951548957802    0.00723703702474
O           0.98589228388765   -1.82223295825202    0.77342755937015
O           1.05685133892503    1.61437938988363   -2.27482221696609
H           1.39443639356247    1.27788530436803   -1.40802059621613
H           1.14006640545618    0.86874346084290   -2.87570966697409
O          -1.02249862611931    0.83881401791432    2.26792874889581
H          -0.15220129532199    0.62430765452951    2.66778219999799
H          -1.10215496729067    0.22786263795185    1.51653324320343
O          -1.10893923758374    3.03380377393119    0.90344271420724
H          -1.91135543768938    3.48681664287239    1.16978929394520
H          -1.01245701898053    2.24673198399952    1.52456533161071
O           1.48781287694877    0.00242249019652    2.74001938050397
H           1.38195183623791   -0.84579082709184    2.28031404190522
H           1.90175942150008    0.57178891116651    2.08176413579949
O          -1.24997659094556    1.69905980429127   -1.22469302118894
H          -1.14644449462383    0.74232373157586   -0.78395223903419
H          -1.19671372152933    2.34476284871962   -0.39794174561167
H          -0.36935472280850    1.80469573678004   -1.75004027505769
N          -0.32395133239220   -3.46876125780891   -1.10271104262064
H           0.03672571679240   -3.28737962790169   -0.16846644037683
H           0.47639847753685   -2.14823196285669   -1.64589779066061
H          -0.11860116168356   -4.42743492195625   -1.35320753702083
H          -1.32844546685496   -3.35063137166998   -1.07691846764647
