    26
        -50.46047665  Gyration_radius:  2.51640259818 Dipole_moment: 5.352
 S           1.49368213051378    1.39921149240775    0.80684156492371
O           1.42897395325878    0.58473533270034    2.02104837801428
O           2.54251080497220    0.99550064472872   -0.09409523295215
O           0.17594606606407    1.50014077024638    0.20006806958971
O           1.86573235524690    2.87143094671581    1.27767879779691
H           2.81412419596707    2.85321968990699    1.20495342358754
O          -0.49476474648439   -2.20134754489956   -0.02624253978799
H          -0.40318860037080   -3.15410824341111   -0.06144646557386
O           0.23585438175481   -0.43037769825560   -3.39824062512613
H          -0.16859694202732   -0.96431274243409   -4.08289132463638
O          -2.32305045417977    1.36198986087499    1.08992875354308
H          -2.68255072409927    1.05661239313162    0.24721008580931
H          -1.46191902823899    1.75668518640361    0.84791128560941
O          -1.49997128143406    0.07833754452588   -1.36494892886821
H          -1.35945126511777   -0.79898991052181   -0.98236613588277
H          -0.84262812729527    0.65340700813891   -0.92782538306111
H          -0.48716082352707   -0.12493515018415   -2.81297965873169
O           1.60109701431070   -1.25072639337180   -1.15497529363726
H           0.35972057211385   -1.83269496730676   -0.42911931952620
H           1.29750727743381   -0.96574444930424   -2.03793338513985
H           2.02366130495372   -0.46048367718573   -0.76062599650530
N          -0.84281199517084   -0.60370014430906    2.10906079511378
H          -0.76328628642404   -1.33245138968588    1.36424430385203
H          -1.07095820291628   -1.00888440523255    3.00989558066242
H           0.11487969498832   -0.10301256767320    2.14354141106574
H          -1.55335128431173    0.12049839398721    1.81130783983999
