    26
        -50.46254260  Gyration_radius:  2.39835141103 Dipole_moment: 9.377
 S           1.69969992818076   -0.72729874137397    0.53418323821618
O           1.68307087479967    0.29194226104736   -0.55003874625850
O           0.34878644955936   -1.24699199113223    0.73399207324780
O           2.70197760754671   -1.71766550759488    0.33729188475700
O           2.02446169187221    0.09438376067716    1.84064343356451
H           1.20962516846919    0.58692637464636    2.05022894342018
O          -1.98944399386325    0.53965033293061   -1.36488760468805
H          -2.63156035687939    0.64691899675062   -2.06762261065294
O          -0.27778631476859    1.51071738994561    2.32795767490507
H          -0.38258736833692    1.64092822136508    3.27149085213066
O           0.70059311591966   -3.09554321928834   -1.15100365294544
H           1.65885219553848   -3.13349212597848   -1.07007082317104
H           0.42360519315120   -2.62391522992303   -0.34674981562768
O          -1.95994162507929   -0.19396995101988    1.35371596114825
H          -1.20048160316868   -0.79321294122686    1.19128698779048
H          -0.99265218187078    0.85877388002343    2.04810081546142
H          -2.25844410901207    0.04254319526732    0.46363538535110
O           0.00228431028067   -0.78294633736463   -2.34720671147145
H           0.73381362226310   -0.37674606938358   -1.84573031157994
H           0.08599387151278   -1.73551250890200   -2.13711133499279
H          -1.27445161186291   -0.06754534846492   -1.73888704125523
N          -0.07617551532146    2.09599779684067   -0.30907408887187
H           0.73425630226539    1.34605273727516   -0.42288865463730
H           0.16957184363217    2.96534136289685   -0.76875465475667
H          -0.92433316128576    1.65446376757464   -0.73675266684364
H          -0.20873433354342    2.22019989440978    0.70425144776056
