    26
        -50.46074955  Gyration_radius:  2.4877203499 Dipole_moment: 3.716
 S          -0.95509689202684   -0.49787886342561    1.76269214443090
O          -1.47719608491054    0.86545910913838    1.79495979691318
O          -1.64168153371362   -1.32619969924386    0.78426214718100
O           0.48277616012050   -0.51188989258280    1.64849498509767
O          -1.29580305015979   -1.13636269655906    3.18222754385585
H          -2.24813868905666   -1.13996709172564    3.22399099580423
O           1.37159733397805   -1.68121164285133   -1.62327059892317
H           1.86538446927888   -2.28441752530716   -2.17990021435730
O          -0.88786947202665    2.41073544967406   -1.70642600585449
H          -1.80009653818191    2.70443078591246   -1.70186857417340
O           2.17129795518625    0.81258108246199   -0.88187337992350
H           1.91832613931604    1.21616701379644   -1.71627943424431
H           1.97246682479181   -0.13790601543121   -0.98324543395777
O          -0.99748043831718   -0.21170163781212   -1.57142646072109
H          -0.19163198639931   -0.71895695139736   -1.75498606625756
H          -1.35130448561825   -0.58655751598417   -0.74185371227282
H          -0.93282218179745    1.41907050979355   -1.74418230488439
O           0.53353422858136   -2.89443929109348    0.53934378375601
H           0.81734583659558   -2.16393723512301    1.12059582096242
H          -0.42230389518518   -2.74024841836663    0.47893202507441
H           1.09244497958034   -2.20560828134622   -0.82155587654536
N           0.40919570054287    2.18291150073619    0.59593014194110
H          -0.08891340803431    2.49327911148121   -0.27963664869602
H           1.15818861505291    1.51660850456493    0.27985454634612
H           0.80940577886454    2.95709316304367    1.11393807727725
H          -0.31162537645096    1.65894654762197    1.18128271216919
