    26
        -50.46074965  Gyration_radius:  2.48793866093 Dipole_moment: 3.719
 S          -1.28996693022347    0.29471561283164    1.58645673764668
O          -0.18561912967944    0.94889012243692    2.28277785244063
O          -1.86331468462547    1.13901447208130    0.55043377984076
O          -0.92605729316970   -1.02806957696124    1.14105896046233
O          -2.44242828989089    0.09933711107861    2.66936976024615
H          -2.68166572217374    0.98445988014505    2.93029367134668
O           2.57318008821212    1.66993833489206   -0.33384862042930
H           2.62102010864512    2.56465473430995    0.00616078552236
O          -0.63884771708503   -1.00521772196437   -2.43369625988766
H          -0.87653281150957   -1.37504878062188   -3.28470282873862
O           1.55441663113681   -1.67509136892117   -0.96875864276858
H           0.68013176476492   -1.57506664758380   -1.39180103047494
H           2.15225456693161   -1.13061861198209   -1.48757351718937
O           0.12070581494369    1.39748733018500   -1.23945916153195
H           1.67630149071309    1.59804065038024   -0.75473696378055
H          -0.08637800438315    0.63058224509412   -1.79560306806272
H          -0.59175212174200    1.42857925331842   -0.57213618160906
O          -2.68966679230491   -1.03397534341649   -0.80798093505202
H          -2.16275873207533   -1.38919710647257   -0.06758914421707
H          -2.75303799288901   -0.09472319015204   -0.57381843655053
H          -1.45954559828007   -1.05474430042135   -1.86815514532118
N           1.87017926836029   -0.29477393532633    1.30336793531962
H           2.33967378801270    0.48451201732751    0.77096325365828
H           1.55203170985168   -0.98732482511332    0.57946743409740
H           2.48628305366539   -0.73456434375359    1.97781682986945
H           1.02139353480188    0.13820398859647    1.78169293516708
