    26
        -50.45450927  Gyration_radius:  2.45189234444 Dipole_moment: 5.289
 S           0.98593255075305    1.23685405948644    1.36365373623121
O           1.62400257097437   -0.16263204585650    1.34957285659434
O          -0.21679856118495    1.22371928692574    0.55108386301223
O           0.81078583014910    1.62941634893227    2.71500043910437
O           2.01973593025723    2.13577096307406    0.65115098347441
H           1.69190296178727    2.32400232230822   -0.28046354068266
O          -1.23020076200263   -2.29620909346239    0.21534223740088
H          -1.40569589915269   -3.21094574564797    0.43954736330670
O           0.31345528565739    0.10860394859335   -2.74878231924000
H           0.15909079942511   -0.06026735547313   -3.67891621556967
O           0.88969983876884    2.52012386052183   -1.63170980389443
H           0.02167314319133    2.62509531278651   -1.22829095597022
H           0.84558142931994    1.67331422231495   -2.11985664286226
O          -1.80996186536022   -0.00928281721466   -1.24508216295735
H          -1.39661085508650    0.52720634108435   -0.54609150064849
H          -0.57433214734329    0.07044966044938   -2.28985288552854
H          -1.84888505562061   -0.90217009295823   -0.87047263665253
O           1.19245673958741   -1.51776418485461   -0.73651323684164
H           1.02292537125211   -0.95137681407880   -1.51139189696464
H           1.50604657683379   -0.68438937742834    0.47094536425422
H           0.32762298861671   -1.89844509362624   -0.47663466757653
N          -1.00821547369738   -0.84907965969507    2.44414886845821
H          -0.08266156213017   -0.99021374252409    2.83296867227223
H          -1.66443999602985   -0.83047432461828    3.21605860582413
H          -0.98864767870682    0.08022550185828    2.03598202726023
H          -1.18446216026725   -1.79153145088052    1.07860345819655
