    26
        -50.46074983  Gyration_radius:  2.48785266017 Dipole_moment: 3.718
 S          -0.99530623913773    0.21423074778338   -1.79682073600720
O          -0.06453187473521   -0.76209392723068   -2.35609373195594
O          -2.00215793843558   -0.40776864963651   -0.95180299623958
O          -0.29914357944684    1.31613287197786   -1.17892621763215
O          -1.79059822229980    0.82697009570045   -3.03424418008302
H          -2.25974749802020    0.08722127814054   -3.41034798831194
O           1.75590597361628   -2.46695763625119    0.59924508580190
H           1.56294194832740   -3.31152680311356    0.18945601154299
O          -0.70678380857713    1.09381692101271    2.37579465148259
H          -0.96183481012389    1.49689304040974    3.20642159634443
O           1.81650088349379    1.00688828191954    1.36082008998658
H           0.89646182164003    1.20305532779375    1.62238644127085
H           2.08993688322415    0.27533403117811    1.92035619132393
O          -0.58625560394113   -1.38712499398537    1.10819270509676
H           0.87347735169326   -2.10102682154441    0.87123991341195
H          -0.62442189650276   -0.61234051159055    1.69007132223209
H          -1.13150865262839   -1.15128216710092    0.33308447762735
O          -2.28907634580375    1.87741282315809    0.44393061119536
H          -1.34291419500717    1.44068235364385    1.68961890310415
H          -1.54525192178309    2.04780446717230   -0.16419837824730
H          -2.62035907593221    1.02565248685694    0.11866312186987
N           2.06921729437198   -0.33238223007203   -0.94354703231983
H           2.91056535779935   -0.11288939960075   -1.46490559142223
H           1.87244664502912    0.40607769986441   -0.22178903381467
H           1.22885616535142   -0.43166151720234   -1.59203271584596
H           2.14358132783102   -1.24111774928330   -0.41457252041955
