    26
        -50.46074946  Gyration_radius:  2.48786240506 Dipole_moment: 3.719
 S          -1.08805198454377    1.68160178911946    0.50789154576621
O          -1.98192771880959    1.36571118669589   -0.60278392802687
O          -1.30092332005507    0.80728317259409    1.65030333711494
O           0.28496971518243    1.76901569701426    0.07450077208497
O          -1.49373715873291    3.14130006579908    1.00139151915329
H          -2.39345800213195    3.05331699714207    1.30383580179891
O          -1.20728151773836   -2.26490924982109   -1.71058207971754
H          -2.14825863248316   -2.44551232186830   -1.69214936173069
O           2.08793806133839   -1.04762919889202    1.37395991957130
H           2.83398800035741   -1.39769346889471    1.86220118723938
O           1.96582306410385   -0.72589482398703   -1.32589551800138
H           2.07681613937112   -0.65880718468252   -0.35820473825742
H           1.77097031386626   -1.65113228691100   -1.49644135275904
O           1.24239006296841    1.18286762106819    2.45129098648953
H           1.82572333027538   -0.20131702865139    1.83296042549245
H           1.18298305622564    1.63663798881140    1.58952658780179
H           0.31345383697415    0.96360771645147    2.62465473644672
O          -0.57091164998375   -1.61618227704573    0.75554068487803
H          -0.95210083540083   -0.78349761780213    1.09502051258540
H          -0.95299475093480   -2.10614914597355   -0.76349635267759
H           0.36741803620752   -1.58236508475891    0.99796172175656
N          -0.36911618909108    0.19066542077084   -2.26115980843322
H          -0.75809813708703   -0.78897362473512   -2.25934091853464
H          -1.00398632044806    0.76685809639924   -1.62739782483762
H           0.58786348044197    0.12088219315842   -1.83200389398616
H          -0.31949088987295    0.59031536900236   -3.19158394121792
