    26
        -50.46975374  Gyration_radius:  2.44536672087 Dipole_moment: 3.734
 S           1.83286052542855   -0.45812086493946   -0.20116128555187
O           1.12769875124183    0.08291537485408   -1.36639193346523
O           2.61712942905967    0.53454209368287    0.49111149912402
O           0.92237037660180   -1.18851502483785    0.65898930417819
O           2.87025936435849   -1.50443791869119   -0.79006983886176
H           3.65782278222417   -1.24440081946617   -0.32560247429443
O          -2.53573384393251    0.26285016912666    0.52144706589309
H          -3.48697864628613    0.22185009599210    0.42076529727863
O           0.90761625783098    2.25985480498501    1.60751384969001
H           1.68481192722664    1.75716466127116    1.28729192381093
O          -0.35906537507688   -1.68038316696513   -2.69349353405986
H           0.22931724522783   -1.00734821874230   -2.29414503755575
H           0.21179643282546   -2.39389599049715   -2.98260007803871
O          -0.46793331293324    0.19429142383978    2.54057268926620
H          -1.33334918183672    0.20141727177919    2.11204044713722
H           0.07360450449049   -0.42429919360233    2.01912407835557
H           0.44017013823969    1.63172791548938    2.20631731175099
O          -1.47833238457105   -1.96657488348643   -0.23932789300161
H          -2.18329534758721   -0.63483356829432    0.22957116436931
H          -1.29347609754824   -1.95606250663299   -1.19825674104011
H          -0.60167790099685   -1.85049775922375    0.17525981826170
N          -0.58992539108019    1.85188346346786   -0.45537981810892
H           0.04741133623175    1.17494761805724   -0.94944301683823
H          -0.01627356470812    2.17707034439977    0.41217133914283
H          -0.84148875525371    2.62583354408106   -1.06005060662609
H          -1.43533923920449    1.33302112436045   -0.12625353080718
