    26
        -50.47096519  Gyration_radius:  2.40571065989 Dipole_moment: 5.277
 S           0.77677621415162    0.19480160754788   -1.14853392997696
O          -0.62648763191878    0.55669507183800   -1.36841880574406
O           0.88637220686416   -0.79616060302723   -0.07453257207124
O           1.31586722673368   -0.45778271716273   -2.44194920628158
O           1.58368045864897    1.36801590144168   -0.86428186269575
O          -2.11496668246002   -1.58572536195928   -1.04147485554807
H          -2.07818611428685   -1.67170650248613   -0.08212362474210
H          -1.70701715971247   -0.71165459517664   -1.22315587227988
O           2.31768084243041    0.83248991749613    1.56995793214242
H           2.32333685827137   -0.12268039728118    1.43971789788356
H           2.20253714415721    1.16739655224499    0.64544688245621
O          -0.99858119996880   -1.15466308222737    1.60314376637246
H          -0.29666328365487   -1.06504430211563    0.89088254709967
H          -0.75591206778424   -1.93311085609140    2.10756164449531
O          -0.63625127393371    2.71920425998538    0.06201430461535
H          -0.82898418251886    1.96313030524822   -0.54383061904184
H           0.24674311324241    2.98802275436679   -0.21872222196314
O          -0.16853724128623   -2.59492571605214   -2.52801851155224
H          -0.54757067392399   -2.67505097067116   -3.40616698722864
H           0.82238907001030   -1.32006932433513   -2.49643262587272
H          -0.91940423026225   -2.35015320849817   -1.93070493476652
N          -0.17391225629114    1.33612065391540    2.24327000382872
H          -0.38597915194953    1.77068194562059    3.13459061410755
H          -0.65248770608874    0.41286151725592    2.13616290573053
H          -0.46024857131497    1.96363626449300    1.42159435325173
H           0.87580630284997    1.16567087563137    2.11400375776990
