    26
        -50.45071916  Gyration_radius:  2.45566349501 Dipole_moment: 5.425
 S          -1.46553594032550   -0.99486901854616   -0.85077907189639
O          -1.28061962529955    0.29458738362725   -1.47530803533993
O          -0.49679849171207   -1.99903123257386   -1.22562620380849
O          -1.56653718475039   -0.87153159366636    0.61137871603656
O          -2.87395442896720   -1.53710569382165   -1.32963148264328
H          -2.73290862305837   -2.47604656856846   -1.27772377053296
O           0.77305888725952    1.98848372615190    1.26669566124197
H           0.99027154634504    2.62172913964032    1.95208470925058
O           2.31824356575450   -1.86573617280218    0.82223740324500
H           2.06927816621094   -2.79213415334540    0.83260539504952
O           1.24090098738829    1.30036168928116   -1.47688389583377
H           1.27862347307433    1.67187453517528   -0.58736860768015
H           0.31437317999694    1.03837082712121   -1.61985593668983
O           2.03855669824699   -1.25269747279512   -1.62924476266815
H           1.12635407083395   -1.59977147931010   -1.67746893034221
H           1.94031011041287   -0.27889218163738   -1.69697439422432
H           2.32106018971784   -1.59875218729454   -0.16532896072283
O           0.52843533306413   -0.48899679216008    1.87518060920955
H           0.72366377000910    0.48915202454481    1.67332435122947
H          -0.36758565935148   -0.69997005143305    1.36424762845576
H           1.30789070530299   -1.07947186428965    1.44420053144941
N          -1.74294093747368    2.06960825567523    0.63705249002632
H          -2.28976969141045    1.53665728852667    1.30262719666585
H          -2.25280325537170    2.91333995303057    0.40740166204395
H          -0.21400705731523    2.11680046692882    1.03080850346224
H          -1.68755979858476    1.49404119254786   -0.20765078498222
