    26
        -50.45071936  Gyration_radius:  2.45541792964 Dipole_moment: 5.431
 S          -1.72166198952703    0.43067366302693    0.84134758167043
O          -0.61703800577340    0.80770616540537    1.69245674936717
O          -1.97589861438016    1.32827721396160   -0.26180121680976
O          -1.58987846222231   -0.95900559726050    0.37749794611308
O          -3.02294711705484    0.45570853337114    1.74289415106906
H          -3.68983776270947    0.64528941765888    1.09196866180309
O           2.13478274399247   -1.26335065695354    0.03900199303096
H           2.81514438792369   -1.93268371951962   -0.04496376447663
O          -0.07195460231985    0.48388625311583   -3.04785395262029
H          -0.96368047517993    0.56917654905508   -3.39123355584458
O           1.68767516990963    1.53747631389846    0.45639988619304
H           0.91825821642892    1.37827908770607    1.03094204811863
H           2.06431390301649    0.66935974032278    0.26876506902906
O           0.04039041435896   -1.40878638547019   -1.43102994435859
H          -0.69323311797431   -1.23378694085235   -0.69602407210865
H           0.00089390247334   -0.61171132474008   -2.14122832291928
H           0.92825379399180   -1.34955124860127   -0.93730547949692
O           0.10234290080917    2.48289509586884   -1.48584629451949
H           0.08342587210519    1.32732345590093   -2.49063817422411
H          -0.72046402802964    2.25960373648629   -1.00845340411747
H           0.82115759936277    2.31241745363301   -0.84032601145218
N           0.66654565215633   -1.63628341457052    2.14588700131735
H           1.02561465153604   -1.78605922022452    3.08035973506089
H           1.63696969519092   -1.43903328431167    0.91517570237442
H          -0.04359857307141   -2.33443546124828    1.96054002836017
H           0.18442384498365   -0.73338539565105    2.13346763943954
