    26
        -50.46162482  Gyration_radius:  2.55224324031 Dipole_moment: 4.679
 S           1.83440998629169    1.30466797361155    0.17244881906660
O           2.07343081728388   -0.13522480303008    0.04233031756132
O           1.23545203797334    1.86111834052373   -1.02830562570722
O           1.12036242551463    1.60341737386524    1.39140017344994
O           3.26272600900389    1.98481696871962    0.30538147568931
H           3.62811554900018    1.95869775371086   -0.57470902973628
O          -2.05395471368374    0.46486928739729    0.59971801971191
H          -2.85465750256158    0.61521184147370    1.10441600294091
O          -0.81955651590213   -3.25960486302800    0.26202702322499
H          -1.55304066960028   -3.82857223587116    0.49743537488954
O           0.65954791179618   -0.42894030100535   -2.30358909056216
H           0.76331082307283    0.49845026597743   -2.02368276727329
H           1.31422099518873   -0.89737636325185   -1.77413007949614
O          -0.93348985200191    2.77710196133203    0.25721265748414
H          -0.43773632268479    2.73463821622554   -0.57363282648005
H          -1.68261972250182    1.37588012821061    0.40101093338840
H          -0.23953331497996    2.57311378314905    0.91519211265661
O          -1.66462370448419   -1.46371172522006   -1.43587616814582
H          -1.14143696390823   -2.68726458607889   -0.49082431333144
H          -1.95374682291196   -0.73843706529247   -0.86454361884601
H          -0.87167572443926   -1.12250063912073   -1.90433312278876
N           0.06024161915804   -1.04747246526961    1.42530251278027
H          -0.21107487395617   -2.01790474234794    1.11170253015667
H           0.91621276995139   -0.72579729609351    0.87648396691030
H          -0.72866265131736   -0.40067374690178    1.19645448213662
H           0.27777840074065   -0.99850306165284    2.41511026030133
