    26
        -50.46282792  Gyration_radius:  2.50879566648 Dipole_moment: 5.079
 S           0.45110096990705   -0.20916820944529   -2.06055851209499
O          -0.78991570793376   -0.87751872199386   -2.37433440934275
O           0.32507641137476    1.24742905860027   -2.10873645271136
O           1.05119009506614   -0.63508741102986   -0.80763648196117
O           1.47304170060281   -0.61203588539569   -3.20167117694349
H           0.88771655599515   -0.65204036846037   -3.95011964010692
O           1.68799818655781    2.26474175829469    1.64449599609334
H           2.50889879205546    2.26714510681435    1.14909647982907
O          -1.74950807549794    0.16671518537327    1.42346938733381
H          -2.57497382040837    0.19602152350637    1.90824294459281
O           0.47861495765902   -2.98824141582992    0.36799116694918
H           0.83726826920936   -2.81057352769048    1.24135444325057
H           0.79462229176509   -2.25799167798066   -0.19712169079711
O          -1.91346453411627   -1.82193120506486   -0.16975881120504
H          -1.20761960265000   -2.44651706253424    0.09145080143325
H          -1.83308489875958   -0.62292266697667    0.78676717090552
H          -1.62942801795129   -1.50122824458464   -1.05158310634469
O           0.98013279148114   -0.25590943306151    1.85789179717372
H           1.11452727707110   -0.42682324865579    0.90630433555226
H           1.53085330221852    1.31855944630013    1.90474131667188
H           0.01827621831706   -0.20803800229124    1.96461822903465
N          -0.50455520134048    2.19033191475493    0.13834460697812
H          -0.17723672073513    1.81496682924151   -0.81669123828597
H          -1.03931838092012    3.04319536598397    0.01449685853317
H          -1.07738535929675    1.45377719254780    0.61181489538075
H           0.35717252031113    2.36314370954857    0.72713112007981
