    26
        -50.46282668  Gyration_radius:  2.50802215229 Dipole_moment: 5.094
 S          -0.52014997614373   -1.85438770620764   -0.88029457595701
O          -1.02599404490652   -1.04979665721439   -1.99241809612854
O           0.85103861175662   -2.26167505373342   -1.07825270496259
O          -0.76218680569113   -1.19182702619500    0.38991697099485
O          -1.38071380334906   -3.18378802414875   -0.85755313859256
H          -0.92112529428861   -3.69880636359616   -1.51167343157788
O           1.65047198606781    1.54730478963957    0.02619092399543
H           2.43165812647835    2.09709840510999   -0.04208383309229
O          -2.31175805339149    2.30669556487083    0.01579033230630
H          -3.10012629787178    1.76190725912198    0.04623963469705
O           0.84989814969389   -1.48084583695862    2.52695408583190
H           0.53671751537626   -0.73935045868778    3.05143736843003
H           0.20472005593579   -1.57758960895946    1.80114312220965
O           2.47369242053232   -0.83213234852936    0.44980146828129
H           1.99352063794172    0.60232798424242    0.18560439240429
H           2.12059784182745   -1.09989341692054    1.32171041308884
H           1.99761549728236   -1.40879375797324   -0.18432834830895
O          -0.59426514202689    1.18062388153406    1.65408671975432
H          -1.74787495408284    2.01088591657189    0.77863541573561
H          -0.73639162544175    0.29428276940977    1.27069567039650
H           0.26442772546577    1.46329091759082    1.30562249695431
N          -0.44679204708391    1.43809630163781   -1.67212318411890
H           0.42507438946241    1.50170556030941   -1.09680392261558
H          -0.33260445976566    1.91636377064544   -2.55920574249487
H          -0.67979379450279    0.39965708841028   -1.83697710934662
H          -1.23965667928536    1.85864604002589   -1.11211492789679
