    26
        -50.46282785  Gyration_radius:  2.50879251387 Dipole_moment: 5.080
 S          -0.89899912756295    0.72684405371430    1.77655951603110
O          -1.72132418013619    1.53952296474808    0.88036389515022
O          -1.52420662339326   -0.53343563308675    2.10204217768986
O           0.45448023888068    0.59980668948497    1.26336856489062
O          -0.78437079274841    1.53000155497125    3.13688249920772
H          -1.58792383120373    1.25680666985599    3.56591701304242
O           0.93794254816128    2.24038786964180   -2.18742101680890
H           1.13105770301125    2.98072310200333   -1.60957988303822
O          -0.26827029399502   -1.56435710288689   -1.61046186882015
H          -0.48618843805842   -2.28585217079967   -2.20143584875076
O           1.98972371824338   -1.56873819013871    1.69551111783288
H           1.47360416057646   -0.74187770939303    1.74557755968037
H           2.66376808479422   -1.41057591783295    1.02944236200828
O          -0.37916020535318   -2.50833735247030    0.75938945173777
H          -0.91015785786859   -1.87722504163979    1.28939114656327
H          -0.32617616764478   -1.95196691437929   -0.67112676718873
H           0.52135248448084   -2.42892462369306    1.13266818145773
O           1.87724556390845    0.11027719904465   -0.97061967402818
H           1.46856104788885    1.47678465707444   -1.83668690441125
H           1.45364730264378    0.34491312063454   -0.12308468301960
H           1.33166591797688   -0.60704551227020   -1.32653393543522
N          -1.29965142167349    0.93198797660196   -1.58536059877966
H          -0.49286547198414    1.53508440651058   -1.90858719565760
H          -1.50679201100057    1.18679045996616   -0.55953213591407
H          -2.12297856569614    1.08615329325439   -2.15725978288301
H          -0.99398379227808   -0.06774785885233   -1.62942322052270
