    26
        -50.46185356  Gyration_radius:  2.44950699487 Dipole_moment: 8.672
 S           0.88803705119137    1.91096433596324    0.68028301730716
O           0.97131365832732    1.21672489766124   -0.60558983889401
O          -0.11716043177937    1.21883211489616    1.52270193728034
O           2.14432270386447    2.06766418990067    1.33888274213480
O           0.28896712291267    3.33854467037981    0.39669698892680
H          -0.55091339088999    3.18312199903863   -0.04845299965247
O           0.77486699785557   -2.35049056857757    0.74611024356271
H           0.98627632488603   -3.20013410113700    1.13556601653336
O          -1.58708883531708   -0.84863360497059   -2.21514967329757
H          -1.92505097317197   -1.58086939546862   -2.73162066464182
O          -1.52668448051681    1.80136328401879   -1.08179333711319
H          -1.88989785202484    1.40125563975969   -1.87655623397993
H          -0.58703094278598    1.52740542398743   -1.05957148831354
O           0.98174198240140   -1.15308807919020   -1.81473228762922
H           1.06702140411526   -1.72330274884320   -1.03786848633957
H          -0.59384585883035   -0.94284487603184   -2.21441554011634
H           1.15726942034094   -0.25215133591657   -1.48104225095531
O           1.75590742688352   -0.48574408020251    2.29031710504014
H           1.00043745080623    0.13299333871906    2.25408874806432
H           1.24393086522660   -1.66932795033606    1.30364787039078
H           2.49841127557811    0.08485210533530    2.05927125213518
N          -1.41969995432303   -0.74873026117172    0.48677272197445
H          -1.62919528008435   -0.65144193696438   -0.53427047128558
H          -0.71818853965334   -1.50644208385998    0.61353676984974
H          -0.94842083958164    0.15484093353109    0.85496417028479
H          -2.26532631543863   -0.92536194051829    1.01822367873022
