    26
        -50.46306170  Gyration_radius:  2.54955700714 Dipole_moment: 2.589
 S           0.35967897859029    0.79997220137995    2.04979129928357
O           1.30165906049415   -0.22140586255128    2.45786489902746
O           0.88779949390048    1.66831504132753    1.00503530954226
O          -0.94696597431333    0.27536999687916    1.69848544315984
O           0.14726203583262    1.71514751036447    3.33145899204393
H           0.97175174292436    1.58625637619554    3.78879469126464
O           1.73858326996070   -2.11262831409167    0.65592142914278
H           1.74977374521826   -1.51547235797108    1.43504774664361
O          -0.78733060488851    1.03049622930180   -2.55910160228740
H          -1.30348768288273    1.41532292053496   -3.26875919524702
O          -1.06722208084892   -1.62032459730706   -2.19995577597813
H          -1.07094806099865   -0.64563968554871   -2.31875953044335
H          -0.20682583643543   -1.90961957426935   -2.51354625574766
O          -1.05211934165511    2.62783492511761   -0.47386906004599
H          -0.40960800561550    2.23378773122482    0.16050809373061
H          -0.78376455629211    3.54327828358258   -0.57387642466116
H          -0.94215250979041    1.60222262965857   -1.76410404797295
O           1.44249959107358   -0.00624750235271   -1.03202316864506
H           1.37258864453418    0.62614224345418   -0.29313841575338
H           1.90486733466392   -1.51346879380104   -0.09236799818691
H           0.88107057724460    0.35840346370472   -1.72539347998792
N          -0.86116700767449   -2.00950930388293    0.44750118215142
H          -1.44168122458818   -2.73403884012603    0.85390222295083
H          -1.07150576818896   -1.87726723489226   -0.57301579908374
H          -0.99837301067934   -1.08985060598781    0.95863349921945
H           0.18561720044977   -2.22707687000405    0.54496595592365
