    26
        -50.46995615  Gyration_radius:  2.53279026861 Dipole_moment: 3.470
 S          -0.77642971723542   -0.46545869854831    0.55003014313566
O          -1.64851968015038   -0.71434933058638   -0.59619854743312
O           0.62955675642794   -0.72431006054560    0.17983792451895
O          -0.92673068841913    0.87507252345870    1.07451787421667
O          -1.14942262351148   -1.44878525647434    1.68304151261457
O           2.13618683093345    2.97769297896618    0.56840480985434
H           2.00024528703632    2.30113763201300    1.28462712715123
H           1.66512570264935    3.76018508617579    0.85955204461485
O          -1.56494609298179    1.77774055933074   -1.44995454232136
H          -1.76420832921548    0.82712142458577   -1.30181686490203
H          -1.76427227049423    2.17862565788875   -0.59689952555997
O          -0.14570146180238   -2.67031814042714   -1.56021592568022
H           0.59885702237303   -2.26608161089908   -1.09521948187589
H          -0.84488661485212   -1.99289151372291   -1.48199055944607
O           1.43236400991218    1.07033593998591    2.23517759390664
H           1.75883379965106    0.21638199631669    1.93687572749765
H           0.48765650081821    1.06909215832447    1.97031994394144
O          -1.23108247996653   -3.79659387876739    0.57405195389361
H          -0.78117546877693   -3.57869361674794   -0.28006211275287
H          -1.16049357160046   -2.38463047265470    1.32921045462144
H          -2.14583576177283   -3.98877435073437    0.35664751263203
N           1.05518906125062    1.40473424956674   -1.27414049289351
H           0.99976921713206    0.49527414394658   -0.72437935986191
H           1.51356597185386    2.12004481765007   -0.64168603365995
H           1.57938580538804    1.28237354042179   -2.13431040977611
H           0.04696880534319    1.67507422145851   -1.46542077645028
