    26
        -50.46995614  Gyration_radius:  2.53291587965 Dipole_moment: 3.467
 S          -0.53196401303362   -0.62150532029937    0.67397003318442
O          -0.65643676692395   -2.01886265856239    1.32322220734834
O          -0.71438146216499    0.39613710892973    1.70712460050696
O           0.82316137622177   -0.51700078013924    0.09645972402665
O          -1.53643569953191   -0.53702100743592   -0.36454387791588
O          -0.11000596431225    0.51332619889310   -3.67168875053800
H          -0.99113434753291    0.61152290244844   -4.03657981095454
H          -0.08140124339736   -0.40205084158670   -3.28355350302616
O          -1.71723195600872    2.18218541772267    0.04904374143933
H          -2.35964934224083    1.58885359407990   -0.35513418189950
H          -1.40928755778987    1.67689641064346    0.83344078674299
O           1.81736992489290    0.33796778590232    2.48270930154152
H           2.03258556946725    0.01410267697780    1.59793646674341
H           0.88257130280210    0.60655989276513    2.39473429025934
O          -0.16748743475804   -1.71819669795545   -2.28327131359906
H           0.64107349872528   -1.82539641419017   -1.77364874180482
H          -0.82091990405191   -1.39520908620749   -1.62645833897352
O           0.89645758523233   -1.96487669573475    3.40567024678363
H          -0.04899313187092   -2.07949623654057    2.11577456128124
H           1.40230929409803   -1.13993948903934    3.19857800366030
H           0.35562687465426   -1.76514799978407    4.17286140624216
N           0.47484563537040    1.63744376856165   -1.34100329906839
H           1.22354790129345    2.32235822071317   -1.33958801435744
H           0.24861017137131    1.31571056006345   -2.32441404418364
H           0.74486919895397    0.77086091053466   -0.78568791896405
H          -0.39769951945061    2.01077777923678   -0.86595355446770
