    26
        -50.46306184  Gyration_radius:  2.54972393762 Dipole_moment: 2.591
 S           1.32899118015463    1.77714201995912    0.22489430421931
O          -0.06946077948897    2.07666102207682    0.50627688277671
O           2.04387183308699    1.29728749735277    1.38926662291910
O           1.46776117232605    0.91634413165975   -0.93514801486685
O           2.01790503500761    3.15805404815704   -0.15429540612856
H           2.35922415463258    3.43189296192676    0.69071812160184
O           1.34725365321162   -1.12698879078402    2.19696839155419
H           1.72725593210397   -0.22779425659171    2.09289589359040
O          -2.59889341519451   -0.57073883593366   -1.07605735443479
H          -3.32568161862551   -0.70037336685129   -1.68687435211766
O          -0.95931112865902   -2.67396465451477   -0.72737206912444
H          -1.53594190334077   -1.91365202373679   -0.95892664528452
H          -1.20972029767593   -2.91730493317837    0.16728806022450
O          -1.53553384984920    1.77748241896994   -1.64592473990551
H          -0.88838170282339    1.88530059984000   -0.91099332833824
H          -2.16832406631969    0.28333926733371   -1.33682518130288
H          -2.10291223178477    2.54962476726785   -1.60215408944660
O          -1.09161734329416   -0.26016993688066    1.37564601445487
H           0.38715811895090   -0.96944332187138    2.19902722385463
H          -0.75155556911219    0.63297224390732    1.18217711305130
H          -1.78829538443493   -0.40708087451903    0.72604549579790
N           1.48416035419687   -1.62602375800433   -0.36133614167907
H           1.52632200365528   -1.56662329233516    0.70976026507403
H           2.26835773871836   -2.13935864220609   -0.74687420138414
H           0.56911895643696   -2.06860830291064   -0.62598220105352
H           1.49824916812387   -0.61797599812660   -0.69220064404731
