    26
        -50.45476249  Gyration_radius:  2.60393537676 Dipole_moment: 5.771
 S           1.21061461914634    2.12786884071898   -0.95910214828256
O           2.33697668140345    1.18124677936739   -0.95108206299366
O           0.36010085151037    1.94006491077149   -2.11614623633448
O           0.52046814609763    2.09967615488206    0.30804142557368
O           1.85091953583346    3.57286907768756   -1.11939343534846
H           1.99296201815133    3.62250993171466   -2.05960531298402
O          -0.33083268966330   -0.90749746080136    2.53380594672966
H          -0.53420031536691   -1.04606409115215    3.45877138360482
O          -0.05249995317166   -1.98866733271117   -1.18092222271917
H           0.26848255286399   -2.29320699571033   -2.03018483300453
O          -1.78479980422740    0.98326357396074    0.96829800881685
H          -1.05889185572867    1.60178393701248    0.75464394005929
H          -1.41129197540358    0.43493958345059    1.67148212351663
O          -1.88442305892380   -2.27221255089433    0.87466601684326
H          -0.90154316370179   -1.52621818561707    2.01474488029243
H          -2.50652829753576   -1.59190015260218    0.59872224004539
H          -1.30445129612122   -2.42321017556599    0.11144299008130
O          -1.44748178336259    0.10023053470563   -1.54704138495451
H          -0.62132370776160   -1.16096562869908   -1.38105699533174
H          -1.73363725958313    0.42166783447982   -0.66413117015380
H          -0.84218296469611    0.80122196211852   -1.87616206010588
N           1.58205748296817   -0.74338590412129    0.53750510244383
H           2.37376036677538   -1.27541954337803    0.88453969293546
H           0.98187551183235   -0.45786256349765    1.32447358290182
H           1.93240073089154    0.12198731026207   -0.03180237394199
H           1.00346960776180   -1.32271985638581   -0.12450710770865
