    26
        -50.45476265  Gyration_radius:  2.60397574573 Dipole_moment: 5.776
 S          -2.45822601864186    0.72002531322658    0.59381949836143
O          -2.58333059999547    1.01972115121800   -0.81751781731688
O          -2.54855110973124   -0.72517728625312    0.85458663753725
O          -1.28507585947989    1.27314427095159    1.22665098571133
O          -3.72716785997400    1.37318441595029    1.29171680401391
H          -4.40689120980623    1.22632837265868    0.64125093891517
O           2.23995092975751   -0.21385667302036    1.51209364737465
H           2.99536317165127   -0.09400036646823    2.08755423535162
O           0.42930980265000   -1.58328005677291   -1.63305823351429
H          -0.09628596285198   -2.10584012566986   -2.23943461435396
O           1.03201418865345    1.99926491909768    0.17746510034025
H           1.56115866702405    1.41347268752703    0.73557844538657
H           0.14851347304815    1.97119096987672    0.59441011744927
O          -0.19121893705750    0.86073124961288   -1.92631559914684
H           0.15860301302947   -0.61009687884148   -1.80079910058716
H          -1.12439130331629    0.96353367569623   -1.63538556347821
H           0.32573663097081    1.37759393168943   -1.27019205908588
O           2.86421166871475   -0.39870865778964   -1.05811640638790
H           2.59037120325737   -0.36075873782531    0.59913240107092
H           2.16036560780329   -0.96629814544654   -1.41047447313771
H           2.66045336343707    0.49026517697492   -1.36503785627977
N          -0.13671692553969   -1.53487099900994    0.98487874827549
H           0.51701946108867   -0.85021738069847    1.39099928058138
H          -1.16653734464881   -1.16775744546460    1.01083297227969
H           0.10940400887525   -1.66278306709394   -0.03075906525302
H          -0.06808204891720   -2.41481029412859    1.48612096589239
