    26
        -50.46949751  Gyration_radius:  2.56262444869 Dipole_moment: 5.897
 S          -0.53658978209390    0.05666075634610    0.14696453512212
O          -0.14330905144469   -0.56987931598528   -1.22127001880076
O          -1.70901479907717    0.87505411787321   -0.02451671841456
O          -0.72905023954249   -1.08845163002153    1.03026699838078
O           0.63023339756938    0.84572794820515    0.58840705359627
O          -2.89434271651332    1.26809045855198   -2.37236901401828
H          -2.57034296889526    1.16343411096469   -1.45318583339389
H          -3.48901728250158    0.53379888283548   -2.53012225276162
O           0.34842761445547   -1.39667577956649    3.42765285437189
H          -0.20711751318187   -1.21532044487335    2.63655764955308
H           0.08090339996067   -2.26224093659743    3.74210687006744
O           1.14043039391382   -2.67069641113490    0.05494235648994
H           1.12310603876689   -2.48326709992110   -0.88764400220889
H           0.31999053722304   -2.24838965791977    0.39683021315599
O          -0.01934842877766    3.02599566507698   -0.80910854070245
H           0.32067308712082    2.33184148186229   -0.21492309880111
H          -0.94966173543360    3.10974490063477   -0.58048461911265
O          -0.24626557275489    1.33915897578193   -2.86305210921289
H          -0.14495407287994    0.17984712427641   -1.92822090655388
H          -1.21661877427560    1.38343821245808   -2.97944388562807
H          -0.03313655089696    2.09600690305822   -2.26955119418970
N           2.23389566744629   -0.85632743912546    1.63245491897235
H           1.65971423361453   -0.04761377746769    1.20345504047496
H           2.08034993509385   -1.66985780718364    0.98145755006393
H           3.20964994481722   -0.61591540868213    1.76479305469240
H           1.74139523827007   -1.08416382943999    2.52800311884396
