    26
        -50.46248956  Gyration_radius:  2.47943526608 Dipole_moment: 4.741
 S           1.12151431370150   -1.15710939626390    1.18112564642293
O           1.56673430333733   -1.08912063051758   -0.20572087402593
O           1.44968880043469    0.07620118074800    1.89409030435823
O          -0.26737832403381   -1.50377158429559    1.32675747965657
O           1.97277471307602   -2.30769930361493    1.85654237872677
H           2.86624379736948   -2.02599765443847    1.68838231745546
O          -2.03188606393578    0.58799024016849   -0.65561061063917
H          -2.90543252329958    0.87458225293014   -0.92390762405436
O           0.85208047259698    3.16096879631281    0.07248153738263
H           1.74375217560640    3.11954726413782    0.42364104035324
O           0.23972939278847   -2.13613326830922   -2.28523305631465
H           0.80139181083826   -1.88343754360808   -1.52612238625839
H           0.36575022948837   -1.44470285352228   -2.93887532718019
O           0.59066694233270    1.05788014787300   -1.49425264522414
H           0.82002112242727    2.48501158253722   -0.65466226802441
H           1.03523598777436    0.30993861074162   -1.04746402737337
H          -0.36028700883691    0.89089660799868   -1.40334302532380
O          -1.93942683128850   -1.96921420495324   -0.69226361876165
H          -1.28759955416647   -2.18619708988836   -1.38977222996390
H          -1.42777042497686   -2.01601558045080    0.13808500231931
H          -2.04638414617245   -0.42690567721473   -0.68725596531364
N          -0.65887689442834    1.52163826629613    1.48424292413047
H          -1.27049624874125    1.07111166440986    0.76457830128720
H           0.13533440233865    0.85643684334357    1.74698442939819
H          -0.17182770045677    2.34463408760214    1.02450717310725
H          -1.19355273375470    1.78946724199947    2.30306511386512
