    26
        -50.46248953  Gyration_radius:  2.47950931679 Dipole_moment: 4.745
 S           0.00093673180516    0.45373928245992    1.94594258541932
O           0.06872160497668   -0.98913299235028    2.17080611158856
O           1.17076931913571    0.92004350598649    1.21096254152991
O          -1.24973449506973    0.84240581673513    1.35000922934479
O           0.08118552521752    1.13569631599754    3.37183333825294
H           0.93878311692873    0.86196642513191    3.68087977465884
O           1.19943784809298   -2.97658169203551   -0.65246653770110
H           1.69839900841627   -3.17060825566482    0.14344829468457
O          -1.13111175058582   -0.06602983472247   -1.90250244519812
H          -1.61912058206009   -0.13070527334745   -2.72400884706931
O           1.13384330287785    2.85332009412705   -0.64458249856042
H           1.18574215127094    2.25762454916100    0.12872448460937
H           1.73611101548233    2.48348457782342   -1.29396124323420
O          -1.49245267573087    2.25735769547164   -0.89228920208882
H          -1.57506028933346    1.90836619112400    0.01591893713831
H          -0.60855184101328    2.67798611582179   -0.90955905978389
H          -1.30533512179072    0.86802298663043   -1.54419902737958
O           1.52418475096361   -0.40023540871916   -1.10309136964297
H           1.48550019876968    0.05036872447260   -0.23585483003292
H           1.47463163087084   -2.06141380415061   -0.92342639021496
H           0.68545712147692   -0.19430252345447   -1.54421602809536
N          -1.11235925535821   -1.92624907558187    0.06603305430276
H          -0.31187142155822   -2.52971815089989   -0.28167421386850
H          -1.96420648871288   -2.45442185573697    0.21921315469807
H          -0.75167418603725   -1.50858029439577    0.98134560633615
H          -1.26222521902271   -1.16240309987687   -0.63328540972707
