    26
        -50.46862848  Gyration_radius:  2.47488902115 Dipole_moment: 4.013
 S           0.08454639502087    0.84121489155768    2.08104490145593
O           1.27519624741047    0.09055256619875    1.78950690526119
O           0.14355317575555    2.24896604799253    1.74622796314255
O          -1.10435515730323    0.19527429062184    1.49921924668043
O          -0.13570972091054    0.78863580345172    3.65311369557814
H          -0.61764843544600    1.59605495349928    3.79803871920564
O           2.00120593592477   -1.85582318177489    0.12134401935960
H           2.01809636466689   -1.18699946106367    0.83136187267032
O          -1.29058485970437   -1.00346879118316   -2.18562687407132
H          -1.93036232392561   -1.14062140770798   -2.88439126281022
O           0.82045892077916    2.16922973742045   -0.75714696422487
H           0.62462829843709    2.21296389437873    0.21100069001538
H           1.42909295399642    2.88778115344481   -0.93746884648365
O          -1.75862113353606    1.20438098648638   -0.89991379803940
H          -1.52751188426812   -0.13146088141485   -1.74980382239667
H          -1.66897240775396    0.91805432238484    0.03079917128556
H          -0.97495579020117    1.75262923031175   -1.05857776496030
O           1.45540008287791   -0.25875320106453   -1.94059250677539
H           2.02754222966850   -1.32882449655373   -0.71136860942702
H           0.58232769756519   -0.55432875752368   -2.23194745985184
H           1.31459532481224    0.60763748407994   -1.52182397824821
N          -0.57257117026075   -2.03848858900854    0.22580928344209
H           0.51751628617062   -2.09726902128541    0.19301745385528
H          -0.98824078854405   -2.87557730778003    0.61720140483928
H          -0.80560683738933   -1.18907114632775    0.81570006228476
H          -0.91901941373476   -1.85268909916664   -0.73472350175393
