    26
        -50.46862852  Gyration_radius:  2.47508178718 Dipole_moment: 4.013
 S           1.39869403118724    1.08582438602542    1.38245721960237
O           1.93548024737377   -0.20014921285109    1.03003644444831
O           1.77225732348863    2.17383323162052    0.50273040321906
O          -0.06061283225426    1.01723287255836    1.56968285257949
O           1.98725074531165    1.47110225824077    2.80647266724223
H           1.95922806233350    2.42113032235141    2.76516147691913
O           1.00020118065311   -2.53855555221475    0.16025394652644
H           1.60141931792808   -1.84038879004278    0.48088388223312
O          -2.46394273062599   -0.64457129679608   -0.98119167207670
H          -3.36749046264199   -0.58312727749981   -1.29140397465645
O           1.03027929371512    1.26967795926869   -1.81287737823726
H           1.67460884011877    1.53612055796015   -2.47104129521253
H           1.37342777735394    1.59786600865994   -0.94555737412256
O          -1.42392758002113    1.71034497000930   -0.63562222787349
H          -0.69010655662905    1.75100065301983   -1.26784614164204
H          -2.13037104565602    0.29700466010069   -0.88770268187785
H          -0.98861121215274    1.61163534416288    0.23444544084182
O           0.09792616841929   -1.33309059774519   -2.03842769121531
H           0.79065336705739   -2.27416366632559   -0.76602155173215
H          -0.84333572764355   -1.20664046755758   -1.85791376718462
H           0.49690361141170   -0.44735797038271   -1.99071092503275
N          -1.05350697048452   -1.38850145469217    1.22285948672483
H          -0.22583342090642   -1.98813557328500    0.83815643525545
H          -1.48074074482414   -1.80795943320583    2.04032563477440
H          -0.64757062344012   -0.43699950375167    1.45452393779767
H          -1.74228005902697   -1.25313244762656    0.45832687268922
