    26
        -50.46460291  Gyration_radius:  2.53539301726 Dipole_moment: 4.543
 S          -0.06238219684919   -0.11475786583399   -2.11838313930209
O          -1.36207872984634   -0.06972291463047   -1.43168248148261
O           0.64718716296715    1.13757976955834   -1.97248189898172
O           0.70431111085294   -1.28258255260978   -1.74480194798397
O          -0.39183577120969   -0.26733023093080   -3.66042092679926
H          -0.56832617134270    0.62954068691467   -3.92580364434080
O          -0.48142439008572   -1.91361269464805    1.82641441753704
H          -0.73047878913842   -2.56605441066963    2.48151060740535
O           1.62773695715797    1.52645891788874    0.44835448463929
H           1.41585978280494    1.53185760980136   -0.51110102635937
O          -0.23048022727202    3.26828160454258    1.78873516827161
H           0.59565302555471    2.95111457673174    1.39791532942862
H          -0.15219568778919    4.22054255896663    1.85277539193443
O          -1.26829855691623   -2.59886013011698   -0.57646932073922
H          -0.79977694790410   -2.26115543150191    0.94565048609893
H          -1.71911830261199   -1.79240758213108   -0.87680663797228
H          -0.42399064533373   -2.53757936192957   -1.05652847515098
O           2.00543729681276   -1.09808445600527    0.62021083981281
H           1.32839847120214   -1.48712839520793    1.18982341532498
H           1.69654451599474   -1.24900781775233   -0.29177210169903
H           2.06616305810915    0.65964325699852    0.59729837233797
N          -0.80537208027168    0.66069165259191    1.02317781597043
H          -1.16237757661240    0.45091546492105    0.05144763669080
H           0.19155756487485    1.01927762809188    0.89615582236341
H          -1.33226766478264    1.40280594837029    1.48022366750430
H          -0.78844521831745   -0.22042581144078    1.56655816550888
