    26
        -50.46460295  Gyration_radius:  2.53554640719 Dipole_moment: 4.540
 S           1.56557427398122    0.94784764324271   -1.07560640843514
O           1.45569013211055   -0.50966889338397   -1.23812301042029
O           0.43174553712192    1.62459784658192   -1.66691644885958
O           1.83328944261685    1.31823148764384    0.29634378957752
O           2.83630757925268    1.38327063956755   -1.91533259843038
H           2.48922919914464    1.45048236152448   -2.79907810172813
O           0.12541119435016   -1.48988799814289    2.23412613843945
H           0.17149730609753   -2.08818142784761    2.98030782759075
O          -1.80210960926850    1.36092807155741   -0.28368851632996
H          -1.07459364421696    1.63594826695180   -0.88415468872926
O          -3.30345573063929   -0.72346460105109   -1.58159387330342
H          -3.99571414759844   -0.58911316018598   -2.22944234929565
H          -3.07636003095649    0.15175159383100   -1.23774095451131
O           2.48110405483629   -1.09606723598359    1.15769811043901
H           2.51839921246663   -0.12390994707929    1.17858214342760
H           1.06066301978014   -1.38138556756007    1.90041460296452
H           2.30113972333120   -1.26149137821581    0.21739256084869
O          -0.32632452322763    1.33972601916612    1.92593070422812
H          -1.47436247023713    1.58331351351605    0.61567462618827
H          -0.26215812312552    0.43702997195490    2.26529660079770
H           0.49965347963465    1.49122302722506    1.43121775049688
N          -0.89536908226351   -1.12451321780013   -0.25623226402710
H           0.02511121202547   -0.99225840913719   -0.75713398852186
H          -0.70381315440205   -1.45975811340308    0.70443190395012
H          -1.34465812694284   -0.15768617994646   -0.21231830468543
H          -1.53589673386165   -1.72696431307547   -0.77005524165280
