    26
        -50.45792398  Gyration_radius:  2.59359413405 Dipole_moment: 3.554
 S          -1.65525913182653   -0.67061043146898    1.37791063049574
O          -1.43356953379219   -0.95796898857715    2.77581962562438
O          -1.80146572275112    0.75573197701788    1.09986292438999
O          -0.69679560994148   -1.28246081613820    0.47705417851065
O          -3.05681451802306   -1.33575768236667    1.00691642832297
H          -3.59439333901412   -1.12270169724970    1.76334326556600
O           2.06655777220023    1.32538547898793    0.88642183536141
H           2.49162798045544    2.05440769404128    1.33972234823729
O          -0.00624563112280   -1.07586409942873   -2.13321635478116
H          -0.58060465479558   -1.43908671852491   -1.43962305790581
O          -0.57138319906104    1.38989792229336   -3.49338588652829
H          -0.88717310662971    1.45271820784211   -4.39530658675405
H          -0.42737153454758    0.44953281200600   -3.31621655093353
O           1.10118529565701   -0.32720711045489    2.69955903678528
H           1.50436868267188   -1.19368559413885    2.60375054185657
H           1.67608005390693    0.75410710168291    1.59611008828940
H           0.13848563051527   -0.49768089966584    2.80987001334439
O           1.94754333279743   -1.35668354674156   -0.27237561035246
H           0.88777984447952   -1.33580734061704   -1.84145108963474
H           2.30521031269269   -0.51089035948793    0.01768877003074
H           1.08965714387041   -1.45044207440137    0.17575020996273
N          -0.09395530381308    1.30031254380263   -0.75592022709384
H          -0.32271282863546    2.02994611976055   -1.42878919551787
H           0.79007614047215    1.48360091554571   -0.24284919008154
H          -0.86209659535711    1.15877424752885   -0.02474645546241
H          -0.00873150032524    0.40243233846688   -1.28589971168324
