    26
        -50.46210365  Gyration_radius:  2.43385841664 Dipole_moment: 8.037
 S           1.01355024858572    1.48060750057790   -0.90711114802081
O           0.88840371929179    0.04273104140930   -0.71927962129872
O          -0.24537702906390    2.13002344702432   -0.47178329059515
O           2.17430053677225    2.02481575318561   -0.25553765349474
O           1.14880154251026    1.74336947209155   -2.44477219249901
H           0.33536796797183    1.35437464039466   -2.81160442888241
O          -2.16482717839952   -1.37721670910075   -0.75129630561932
H          -2.82046717613604   -2.03502120212262   -0.98490359676883
O           0.56330146170661   -0.85038308034250    2.37713134252619
H           0.71689422269876   -0.75987652485009    3.31911784011722
O          -1.38498801903681    0.80993156164780   -2.51401764623380
H          -1.58520158811904   -0.03616057690564   -2.08995500997053
H          -1.25820370396838    1.44187942225628   -1.78881569674216
O           0.14479474525740   -2.37572895351636   -0.03735257404465
H           0.25649186166133   -2.26159942333323    0.91385624993558
H          -1.31464209975058   -1.86533438421069   -0.56652155310298
H           0.56448288207023   -1.57875479452085   -0.41944241311069
O           2.78942140724933    0.03420856857852    1.34807240887250
H           3.08428337409328   -0.60598465986203    0.69612682794471
H           2.61483339104525    0.85177902910636    0.82492850194120
H           1.40127414870066   -0.51340042267090    1.94082926663167
N          -1.40622279456122    0.46772178472812    1.09090587695045
H          -1.86229722069145   -0.20650783098629    0.44421687629775
H          -0.91369575317936    1.21375958934680    0.47052823122794
H          -2.08267198816529    0.90517780804761    1.70735092505161
H          -0.65760694854545   -0.03441106596217    1.62932879288665
