    26
        -50.46160663  Gyration_radius:  2.43163685608 Dipole_moment: 8.002
 S          -0.24509317960752   -0.69389304671194    1.75375568596340
O           1.07253586442804   -0.51578102140578    1.11699968864324
O          -1.30948736875614   -0.60708569173304    0.75407014928662
O          -0.29740275943404   -1.86215165912413    2.57493872292532
O          -0.42900666160301    0.57254343951969    2.67643745682232
H          -0.38873444104660    1.34418781078217    2.08033357376087
O          -0.37370002054790    2.67300457792271    0.91449476425609
H          -0.84423395685478    3.39943928625973    1.32607058008668
O           0.18641883937805    0.32976368934266   -2.56953826273600
H           0.34123403568765    0.14202299304390   -3.49572784700629
O           0.74351980084019   -3.40696188996799    0.60776246769831
H           0.26299141133309   -4.22393511310330    0.76001589754735
H           0.51380088219257   -2.82507503713372    1.35478531573038
O          -1.80006962071919    1.42373272810374   -0.83660405661565
H          -0.99899751142689    2.28091123748745    0.23119595502073
H          -1.29284581665822    1.15615956851557   -1.61607997938465
H          -1.81691658717936    0.62503037464826   -0.26347836354936
O          -0.36705721110071   -1.87598424400636   -1.35166992245114
H           0.25563167677107   -2.46743896823006   -0.89083351602008
H          -0.86851302714671   -1.47643890196715   -0.61090180574992
H           0.00479591079302   -0.56136535750186   -2.13452222939476
N           1.55361187238031    1.34508485933185   -0.50035699558519
H           1.12264726960633    1.06085996340055   -1.40721381374797
H           2.54775519217424    1.51774768010779   -0.59157755945486
H           1.06089889348107    2.14797972703401   -0.09269827988761
H           1.36621652301689    0.49764301538502    0.21034237384173
