    26
        -50.46463384  Gyration_radius:  2.47157805256 Dipole_moment: 4.150
 S           0.55541860301342    0.02764147391628    1.80504356912410
O           0.45153216361985   -1.32274938857783    1.22616453627165
O           1.91051488510506    0.51837621527245    1.82614770490911
O          -0.42271772662658    0.90284892038648    1.20832734709601
O           0.13822124306686   -0.13852122085155    3.33410655351596
H           0.98014326638462   -0.09847786390593    3.77579076973257
O          -0.02549930051078    0.50621649979031   -2.36481098369717
H           0.32176041304570    0.37457963540176   -3.24805680886572
O          -3.06899549548582    0.57854476325419    0.36246401761240
H          -2.59827417298748    0.69729752701909    1.19626409280129
O           2.50280693124977   -2.02492991626838   -0.32303443314006
H           1.75431324444320   -1.87756234233589    0.29191718967926
H           3.28360766006254   -2.10448711270040    0.22768546563416
O           2.07309586300122    0.59683892067102   -0.84439181529801
H           0.77226747606578    0.63209560500504   -1.77363045621345
H           2.02657584987436    0.79425971818509    0.10769410939771
H           2.37464631811393   -0.33270417026588   -0.87877145525574
O          -1.51423256769232    2.36358538134898   -0.84315093836392
H          -1.07407950061825    1.92542769594897   -1.58343295320772
H          -2.76014907429783    1.34503736146674   -0.17779457318663
H          -0.97160118435580    2.14191187384812   -0.07036136729038
N          -1.35114402571953   -1.12595884834847   -0.66595102823184
H          -1.69685736890215   -2.01681296081372   -1.00592108801702
H          -0.87898209394113   -0.58432296541794   -1.42446116280453
H          -2.13696801851758   -0.51266944262166   -0.27031470654989
H          -0.64540338736426   -1.26546534935478    0.11247840425694
