    26
        -50.46214877  Gyration_radius:  2.45507936898 Dipole_moment: 8.527
 S          -0.33671921466067    2.03407837826582   -0.56446149468235
O           0.43170363811828    1.29185961681934   -1.57175848672230
O          -0.92723511840018    1.09995235794820    0.40143643126922
O           0.43651000743135    3.06069975448463    0.07939027979541
O          -1.51580881620892    2.72302918066751   -1.33284106481163
H          -2.00276239230251    1.98870995589712   -1.72901412371896
O          -1.03275824046922   -2.43658641167596   -0.87578364528744
H          -1.35529805578174   -3.33735998868730   -0.83601416671070
O           1.99026937543468   -0.73792788206776    1.52219815578451
H           2.85667857587468   -0.83746085514300    1.91940294452408
O          -2.39686245104933    0.11604140052627   -1.56352164558022
H          -2.00350144346514    0.36502869828561   -0.70877890136486
H          -2.08635700069009   -0.78046906765657   -1.72958165096878
O           1.21131291141642    1.66411758853623    2.15981147280444
H           1.04379485460429    2.26152609812425    1.39391743202955
H           0.34902959934264    1.57209314606283    2.57377240374624
H           1.70358474633449    0.19785008398804    1.73816945151052
O          -0.79093203494091   -1.32577665916395    1.48617434954004
H          -0.93990884429202   -0.40320391934980    1.19725020111541
H          -1.08070526511805   -2.07651449370105    0.05206367389922
H           0.13901464732733   -1.35427872127118    1.74435465208651
N           1.28009983909370   -1.04568304791476   -1.07758542234758
H           1.64170387306319   -1.00523232108991   -0.10054593788600
H           0.90961956268231   -0.03684983412125   -1.31095140643311
H           2.00683030491445   -1.30415651175378   -1.73523159882785
H           0.46869696176433   -1.69348657606284   -1.13187191275311
