    26
        -50.46162473  Gyration_radius:  2.55243195509 Dipole_moment: 4.676
 S          -1.84472531696191    0.47745629518373    1.21168088022374
O          -0.72894998709771    1.41961789239525    1.33250846389565
O          -2.40893103073955    0.48034536297232   -0.12689430928510
O          -1.47489863691324   -0.82907859105518    1.70273943331289
O          -2.98995561416854    1.01475811526279    2.17077649286770
H          -3.36027401336327    1.76414206736177    1.71248577246603
O           0.60971739807427   -1.92955434369339   -0.83589158627926
H           0.94810385921875   -2.81920663797369   -0.94761013882563
O           3.24154649908512    0.91668942497012   -0.13999507414063
H           4.10320419999779    0.57691828574123   -0.38347575710509
O          -0.53027662331414    1.94314442228763   -1.36494287328507
H          -0.24939379602962    2.31223865028947   -0.52039934504346
H          -1.30189078117119    1.39734679990543   -1.12860256648034
O          -1.95523001593598   -2.13407114299175   -0.52165035606640
H          -2.35142463101788   -1.31758963847183   -0.85962567937245
H          -0.38933628680738   -2.02058740748629   -0.80569350219933
H          -1.88472581657519   -1.94199678660742    0.43451108101410
O           1.56797183340264    0.42445092183268   -2.08412411745706
H           0.81545683825761    1.04567920158609   -1.97297401628490
H           1.21416186211584   -0.44654269239316   -1.85568802333159
H           2.67234556440603    0.84398531313336   -0.95770545180145
N           1.27427345616817   -0.24413064996092    1.20274970448847
H           2.14348769333739    0.23076744957567    0.83840552854720
H           0.97631771957670   -0.95804604062354    0.49940144751155
H           1.41263295328163   -0.68064084695170    2.10814994600929
H           0.49079264314749    0.47390457568492    1.29186406660852
