    26
        -50.46162474  Gyration_radius:  2.55244460736 Dipole_moment: 4.676
 S          -0.85590209745623   -1.66384995865639   -1.26403996073123
O          -1.76001664240182   -0.58274343282391   -1.61613284643728
O           0.54207253062449   -1.30843227785214   -1.52234136895676
O          -1.02230765127824   -2.17026517946164    0.07789843899827
O          -1.20190135627084   -2.86185136308460   -2.24652111753175
H          -1.29337145068442   -2.45602191142414   -3.10425100907932
O           3.01794428199400    1.27020033575627    0.80451583496456
H           3.46810378980549    1.72928003871043    1.51431437624774
O          -0.71771890117931    0.74080464276135    1.93091324178495
H          -0.91023342002491    0.84342287564410    2.86411819021520
O           0.05103971829081    1.35607214889586   -2.01985374508318
H           0.73904737927353    0.69538027040128   -2.15600695744747
H          -0.75780800663798    0.82301376545313   -1.91621825147845
O           0.77456729047889    2.50864130496954    0.29845848270078
H           0.14447254946340    2.07420448543578    0.89028338291822
H           0.50299215336167    2.24275990480130   -0.60713521985242
H           2.24823351346883    1.85022533729791    0.54175531235274
O          -2.78667036914397   -0.39122908899038    0.85500974835545
H          -1.55995075082858    0.38502759013993    1.51713606098799
H          -2.82663839383979   -0.09743357493096   -0.06685361403763
H          -2.31615296264142   -1.24456371516501    0.77336998908476
N           1.31683849770539   -0.75868392668063    0.90576351258566
H           1.05936137727932   -1.00134842413044   -0.10027605103626
H           2.12702667829058   -0.08235098586096    0.90563107064844
H           0.49529971431001   -0.27964184746525    1.34015916803272
H           1.52167250802669   -1.62061704373944    1.40030333177993
