    26
        -50.46461213  Gyration_radius:  2.53585491775 Dipole_moment: 3.110
 S           1.73712978482062   -0.62113653504475    1.02270419177859
O           1.60203400055917    0.70010725281695    1.59552237655901
O           0.70975232545107   -1.53906700882285    1.49849924774110
O           1.82467752607301   -0.61020352172886   -0.43231158928877
O           3.12678675491361   -1.19576371532613    1.52363395874614
H           3.12236595231532   -0.97839673150430    2.45040387992436
O          -0.71165398629642    1.85748709224402    1.08874127149296
H           0.17415643173894    1.58632845485788    1.41815103457829
O          -1.82499636298317   -1.41910026548040   -1.37585071558249
H          -2.45625792547211   -1.93444376353544   -1.87865131384280
O          -0.27353897050416    3.55496601769242   -1.20200279582637
H          -0.50065565421998    3.29900210758060   -0.29745515851588
H           0.09551657101167    4.43709900122374   -1.14923188900181
O           0.29335295819694   -2.82991810212626   -0.75195867862312
H           1.03904404922119   -2.36172267832555   -1.14771912959521
H           0.36721667796941   -2.57904003861167    0.19249902487428
H          -1.06329776825054   -2.02992326120342   -1.16790090844357
O          -1.80211999704905   -0.54594970722793    1.36680995136034
H          -2.05254348478386   -0.88213286671855    0.49571000803956
H          -0.94779115791019   -0.96891907713033    1.57232534151030
H          -1.31050103289345    1.14019490256045    1.39396527519434
N          -0.23394411733010    0.78184762112785   -1.27659267353191
H           0.67040516670968    0.28081680338877   -1.06698491775693
H          -0.11715154621339    1.52005588428668   -1.96887278743075
H          -0.94858287252609    0.08234573970549   -1.54100837971750
H          -0.51940333244896    1.25546640514571   -0.36242463466789
