    26
        -50.47066092  Gyration_radius:  2.50132929291 Dipole_moment: 4.644
 S          -0.14449810743067   -0.20959438974638   -1.05795789154181
O          -0.30836328962413   -0.42771510439846   -2.57520614875341
O          -1.29737588421676    0.53126258257768   -0.55836067213360
O          -0.04377633318945   -1.53201330432556   -0.45942300990483
O           1.09424916587778    0.55201628105653   -0.83010269672092
O          -1.33000562253499   -2.37923983551593    1.75509061327095
H          -1.05038592169000   -2.17590729461576    0.84292641603609
H          -0.61518412550327   -2.89777885663470    2.13214501509188
O           1.79673598588688   -2.32959903909329    1.24281832290564
H           1.12589989071109   -2.13143581210752    0.54652665483842
H           2.54894034860066   -2.70523465671947    0.78338202293599
O          -1.19793849755242    0.27421713675257    2.08646724480719
H          -1.41476132377894    0.46955985500977    1.15023622426786
H          -1.41889883883549   -0.67715643083522    2.18426051269881
O          -0.23020315007368    2.88034536436027   -1.14373447261498
H          -0.85162165269516    2.22829533494639   -0.76905927293667
H           0.61836553828981    2.41813868065410   -1.09328735073912
O          -0.92885550773511    1.91374097145879   -3.49853387424241
H          -1.88642083041423    1.96517206380899   -3.53824461683279
H          -0.65198758942815    2.46896075509107   -2.72691074641837
H          -0.51207770009595    0.45513261094871   -2.99659631832841
N           1.36728659452791    0.27718082749446    1.73355426473499
H           1.69541485717390   -0.70709038687074    1.81508054429268
H           0.32212695804230    0.32304303432716    2.02556824078718
H           1.94499650782976    0.92288276013491    2.26029524906796
H           1.36833853785747    0.49281684224487    0.68906574543225
