    26
        -50.46461188  Gyration_radius:  2.53582624757 Dipole_moment: 3.094
 S           1.15957268830850    1.20108153903957   -1.28913191379840
O           1.18723158974297   -0.11267759913447   -1.92027132473679
O          -0.11497906005933    1.86395628390865   -1.45583135130646
O           1.60189424141399    1.14685657098580    0.09866671209217
O           2.23792075828187    2.08736329485897   -2.03980310437267
H           1.81424610054624    2.27577928304615   -2.87109052167186
O           0.49861474622570   -2.42010422758052    1.06300147726587
H           0.69841986039445   -3.27253578164619    1.45066467409264
O          -2.15659992566595    0.52331408689683   -0.46409969818926
H          -1.54795549466145    1.14267109035960   -0.92529302281382
O          -2.62433993346562    1.60511303423948    2.16768621007043
H          -3.12807381212982    2.40268956600822    2.33254703830208
H          -2.79680436062450    1.35774475449708    1.24877687904709
O          -0.93713261158987   -1.67339504383484   -1.31763622168545
H          -0.19146985079087   -1.17466064722614   -1.70012155422913
H          -0.56865260680462   -2.14564153539810   -0.55888805780565
H          -2.00339553745209   -0.33936843114241   -0.90991254462128
O           2.60081348759705   -1.37187807675134   -0.09869979159190
H           1.34039735716515   -2.10132443644744    0.63151563619218
H           2.18022013290929   -1.08357957456540   -0.93576331781091
H           2.75418952937071   -0.53332801417088    0.35400556784115
N          -0.39210157421985    0.11657342328477    1.45960109449302
H          -1.17509239480228    0.22176588092576    0.74025514147694
H          -0.15921784025554   -0.88489833157093    1.57256061006051
H           0.44134747048770    0.61475284039885    1.04751217421535
H          -0.71905298986210    0.55373007096765    2.31974923947741
