    26
        -50.45792508  Gyration_radius:  2.5916192109 Dipole_moment: 3.522
 S          -1.31895915505625    1.78515423927971   -0.36688892428140
O          -0.83386474815903    3.14448248925005   -0.31854312706609
O          -0.50365152351177    0.88087983303843   -1.15598557591881
O          -1.59597817879586    1.22554329662668    0.95320305223468
O          -2.72273227213716    1.84427760911981   -1.12244408563244
H          -3.11869799542522    2.63256263032212   -0.76407611866854
O          -0.33374535308232   -1.78628842045290   -1.54694792197622
H          -0.72987619726301   -0.91924530146026   -1.73622818905842
O           2.11335845045627    0.14325302300621    1.54459290725290
H           2.56619929343873    0.33143909828805    2.36752326286310
O          -1.33317964464454   -3.52067181537160    0.51354826388771
H          -1.09130012541586   -3.16918985850074   -0.35501100657375
H          -1.85226761923340   -4.30945003530588    0.35411059894467
O           1.59313695540627    2.43258508579072    0.34218929494639
H           2.03127447063638    2.46089410736855   -0.51207692414376
H           0.68158269476373    2.76431229082769    0.17933518363167
H           1.89207363738201    1.02404945379073    1.14810958257603
O           1.95786593258587   -0.33958362158581   -1.33602007088330
H           2.30698581185573   -0.31877526353815   -0.43880622467441
H           0.61440589352132   -1.64116639935425   -1.72103029765618
H           1.20650095102695    0.27720103902856   -1.34383547379122
N          -0.30291550035143   -1.00341469206831    1.08585937035527
H          -0.70437786237720   -1.76370633640315    1.63196273866814
H          -0.90981149475432   -0.12237970855870    1.10168415861131
H           0.64635992956859   -0.72930807509968    1.40489015001441
H          -0.25838634062415   -1.32345469815669    0.09088534646875
