    26
        -50.44839922  Gyration_radius:  2.55574326275 Dipole_moment: 6.671
 S          -1.04290302154174    0.26456275280154    0.21486817370294
O          -1.51162484804290    0.89108464613773    1.46330885724469
O          -0.06411209597441    1.06571479553372   -0.48824872478474
O          -0.42780059669309   -1.07630981236308    0.65289137703548
O          -2.19606038183337   -0.10464966628652   -0.62471172246729
O           0.99598746142868    2.25728458391081    1.65177241633208
H           0.28762256423577    2.02147040492558    2.25729568368003
H           0.64322080132583    2.01129962642617    0.77748303736123
O          -0.50883097581907    0.08274243328374   -2.92974771620948
H          -1.34400852420636   -0.34293033575143   -2.71698600624356
H          -0.31909371748850    0.62466985324833   -2.14256341530725
O           3.13790558577743    0.72363179498529    1.10433764201542
H           2.40318478442566    1.27631592672484    1.44739013526699
H           3.62455876216072    1.28677046944060    0.50018670219677
O           1.92400835572567   -1.02298173049854   -2.61325437341221
H           1.00776917002072   -0.73903829457731   -2.81985817245535
H           2.49101889243835   -0.32207266132761   -2.93915871851864
O           1.94181019163481   -1.42972065736447    0.03911320621671
H           2.44025462478039   -0.67994620370321    0.43938382471865
H           0.59720988658322   -1.23600675588387    0.39005822037566
H           1.98889467461153   -1.32741865641766   -0.93981774977947
N          -3.26954147404056   -0.88569256391298    1.49299064802184
H          -2.93370152119173   -1.78882465873978    1.81350335438856
H          -3.03588775836084   -0.73653219895396    0.43262424759054
H          -4.24181982048263   -0.72878687352820    1.73653777821021
H          -2.58806100944540   -0.08463622819338    1.80060131481456
