    26
        -50.46461183  Gyration_radius:  2.5349191525 Dipole_moment: 3.084
 S          -1.31291355135415    1.47595978230277    0.73023971228191
O          -1.97455226361542    0.98791400593870   -0.47336150132799
O          -0.99503383298607    0.39310093483676    1.65268679572099
O          -0.17793216274526    2.32048534169249    0.42936929296404
O          -2.36682455341506    2.38184888908255    1.49224962181487
H          -2.37875931583526    3.17675724863329    0.96859250141847
O          -0.47215051517800   -2.52291791558936   -0.81587439360211
H          -0.65301800118566   -3.42435658376993   -1.08334301932956
O           1.68326346246437    1.13379216827298   -1.01155216467286
H           1.09817712314459    1.75344808691762   -0.52107855247682
O           3.65162390600249    0.19489424484973    0.87667515765490
H           3.27621381791523    0.68408675643534    0.13170205480867
H           4.32920679577495    0.75609855570915    1.25485425609443
O          -2.54100319736237   -1.43531780434887    0.36932524224062
H          -2.54231320488957   -0.57231914371227   -0.09523334219675
H          -1.30823060248282   -2.18106897054252   -0.39088204936015
H          -2.23473839756443   -1.19335225954232    1.25211639717410
O          -0.29435848062308   -0.06870292293470   -2.31018078833295
H           1.12160947978279    0.80691545086269   -1.74906987976403
H          -0.33464928304108   -0.99533029272802   -2.03766096590200
H          -0.98240082962572    0.38507639810202   -1.78895903622210
N           1.08859563168628   -0.84058375309148    0.63967005245224
H           0.70703297144375   -1.66522765478560    0.14548129961194
H           1.89916020345031   -1.05598743239757    1.21801356234401
H           1.40159705731058   -0.10959864612881   -0.07410699287704
H           0.31239775282311   -0.38561449401856    1.19032672950270
