    26
        -50.44334440  Gyration_radius:  2.72020789853 Dipole_moment: 4.394
 S          -2.76427948076394    0.38032198878943   -1.13397978843138
O          -2.93555029063130    0.80436723540091    0.24374858838287
O          -1.88658623397511    1.31723444798432   -1.85979474260425
O          -2.33245709864761   -0.98873304167456   -1.27385350646818
O          -4.17636288563852    0.50006610443623   -1.83162495609328
H          -4.42465478432663    1.39781604306308   -1.63356225216631
O           0.30960188897370    1.16180064309158   -0.75960717434048
H          -0.58628531048774    1.32409018581121   -1.31717502814968
O           0.40049215550000   -1.13900797332996    1.96807965132812
H           0.46651881669430   -1.77013086945050    2.68462283181406
O           2.85496640883128   -0.97323149549112   -1.32773712898530
H           1.98228720809148   -1.38840963283449   -1.26626886128889
H           2.84782326077045   -0.44777228563397   -2.12946733079280
O           0.16973087835670   -1.37655848118587   -0.72417004189075
H           0.15802913050547   -1.52297425323814    0.24191504897650
H          -0.77893768967471   -1.38705964955628   -1.00849853643831
H           0.41067882437390    0.13495097156885   -0.79871841523610
O          -0.71680624749535    1.30612084634359    1.50706198994021
H          -0.46726363929179    0.44109683603545    1.88210798966105
H          -0.01624804011446    1.34071200102512    0.23954720195744
H          -1.63890139650610    1.19227107040955    1.16272141245843
N           2.72464388142591   -0.01080309622048    1.42615777679051
H           2.62613676449972    0.99676028225719    1.40160211522714
H           2.92723614391200   -0.32349724950716    0.47591886355272
H           3.52981714373450   -0.22992022299272    1.99867845400471
H           1.31637060190612   -0.73951038508330    1.83229584876141
