    26
        -50.44057488  Gyration_radius:  2.46888976495 Dipole_moment: 6.446
 S           1.81396107945270   -0.38487452869737   -0.58810475611158
O           1.89972387690666   -1.35055659703338   -1.65355525397416
O           1.49107108143253    0.96590262921437   -1.10777989095619
O           0.91223446771697   -0.74836991957297    0.47474569860058
O           3.25187579269477   -0.24473858625040    0.04513483002429
H           3.80254263911507    0.00881249463120   -0.68913029269057
O          -2.18276053892281   -0.63846268566266   -0.79001964481034
H          -2.82162283555863   -0.65119045167937   -1.50461090797289
O          -0.92362851037559    1.96961756710875    1.80597277265352
H          -1.59993183408736    2.47256718676406    2.26143643898551
O           1.91070972579793    2.54507194502677    1.17697316198457
H           1.91440268972356    2.01620786162050    0.37017781014065
H           1.07736060654715    2.35733259177685    1.61994892774251
O          -0.85731358567220    1.54911503336941   -0.72028280458671
H          -1.37728981498726    0.66629230531198   -0.76715513714606
H          -0.87251879142543    1.83645699878548    0.25850566877549
H           0.18543140131561    1.31694566323222   -0.93523968087238
O          -1.30942430910671   -0.59525884627983    1.92606354991033
H          -1.06670878034070    1.00265904972537    2.02214919330469
H          -1.90350179939914   -0.76032378914729    1.18314211504175
H          -0.42035780085778   -0.78974535201899    1.57360788827887
N          -0.55702824419224   -2.59449203054358   -1.23072246954323
H          -0.76247351146432   -3.27930021355599   -1.94835132283941
H           0.34296235499859   -2.15988880727720   -1.45732331362833
H          -1.53065122883452   -1.41974444057410   -0.96699373398903
H          -0.41706413047568   -3.09003509827498   -0.35858883632117
