    26
        -50.44683689  Gyration_radius:  2.4679789903 Dipole_moment: 3.590
 S          -0.79227917027104    1.74968484411318    0.55139031169930
O          -1.47602801705589    1.45554149035052   -0.71621260212814
O          -1.69698164060774    1.91764339376332    1.65052474769620
O           0.29100083464494    0.81282935521543    0.76397221864939
O          -0.07447060914336    3.16042359264969    0.32611149102130
H          -0.72794335858496    3.79677876523145    0.60105173376171
O          -0.87456813412056   -2.21458440905632   -0.64855521085445
H          -1.52598064846908   -2.77567318700737   -1.07253649447513
O           2.19377401970741    0.39143258089741   -2.05472622081685
H           2.32921828783879    1.30653982306866   -2.30667064726610
O           1.23518155493936   -1.74639167477127    1.26336235496970
H           0.78114216033098   -2.25956094366103    0.58824707440610
H           0.79256630186668   -0.88431118491218    1.26538426230443
O          -0.26706256136089   -0.18756883168193   -2.08862571322366
H          -0.42697863252986   -1.04203252923420   -1.55483711104246
H          -0.78608058353346    0.56636112882207   -1.53428597134926
H           0.74929594238140    0.03090510365521   -2.06761699311538
O           2.90980554017784    0.32824150421053    0.43671422702738
H           2.08892673438956    0.77730023882149    0.70367789891882
H           2.79136145183129   -0.57421504667542    0.77229314105648
H           2.54938664222033    0.30840996856434   -1.11886840118551
N          -2.07685675714937   -0.94078885209617    1.31077311788454
H          -1.34793237352434   -1.73420498973913    0.10967340874458
H          -3.08101607484489   -1.05142165834896    1.39282161433452
H          -1.66697601879964   -1.24953685615601    2.18563835711274
H          -1.89050488033344    0.05819838397682    1.24129941586532
