    26
        -50.44423710  Gyration_radius:  2.55653316157 Dipole_moment: 4.544
 S          -1.16977290758055    1.86806459168279    0.79619068177011
O          -2.03982706467327    0.97772701674588    1.52933948665250
O           0.10071228161732    2.09737058933566    1.45344511850773
O          -1.00191437248756    1.46575296736022   -0.60311016359831
O          -1.90440261686861    3.27458704997536    0.70600755413228
H          -2.04520060938274    3.51431725311306    1.61670106552911
O           0.00709313127978   -2.19051916870314    0.41287738444834
H          -0.41745343796974   -2.99728182230245    0.70770088714554
O           0.46510204382004   -1.01074873790494   -3.12253728549183
H           0.53461725891942   -1.80619848374989   -3.65211608412919
O           1.79269776290665    1.43630610590331   -0.49225350115546
H           1.28176263310544    1.70128690459294    0.29832234390328
H           1.24611456337487    1.72340713256751   -1.22921049318122
O          -1.31626558327293   -0.86246432103209   -1.32919301587737
H          -0.84011701607396   -1.40864679111529   -0.60253175705340
H          -1.27306533902051    0.15518320073623   -1.00417131953319
H          -0.68189118606871   -0.89947823841016   -2.14814678125699
O           2.12654018743228   -1.13676610199149   -1.14261368988752
H           2.15498278578768   -0.19877337196666   -0.84642690267667
H           1.59970447209197   -1.60798732248866   -0.48384153722747
H           1.21830308156164   -1.03757080895683   -2.45691957946857
N           0.06032510732711   -0.58902479328412    2.41062136562343
H           0.07414661730168   -0.92646010454242    3.36512214375341
H           0.78012860777950    0.11961329545141    2.31719012117227
H           0.06893056568770   -1.57109761132522    1.24397457363921
H          -0.82125094660397   -0.09059840970790    2.25557940424468
