    26
        -50.45472023  Gyration_radius:  2.51416214437 Dipole_moment: 7.563
 S           0.68781238233794    0.92401960867065    1.77391283689004
O           1.50629743012560   -0.02484159250206    1.00911414024298
O           0.55180699696745    2.20590581547449    1.14969545856995
O          -0.56473087278029    0.29104946542848    2.18049770786931
O           1.48553995313952    1.16705286076391    3.13074387386869
H           1.87029322779893    2.02851037816342    3.00332034198850
O          -1.13513228302877   -2.00354041039046   -0.87990914520961
H          -1.82006128085706   -2.49862102131549   -1.33025998096952
O           0.83006078621408    1.42986736579998   -3.05397260765359
H           0.51997165370650    1.14489214982667   -3.91428365670226
O          -0.94266003942578    2.28338124376956   -1.15450189560513
H          -0.31721672612513    2.08879192976391   -1.87895926866278
H          -0.39224959137881    2.45661239640500   -0.37385109757330
O          -2.10390346613768    0.20791586186669   -0.06759316848646
H          -1.72786827594669    0.33930444229698    0.81806704632729
H          -1.79038864786415    0.99784656730380   -0.58488143824470
H          -1.55356603810746   -1.10890946663319   -0.62732391298949
O           1.32453946197677   -0.79907818539360   -1.61704851603788
H           0.47844708871278   -1.25775470757769   -1.51557450678542
H           1.12082095289888    0.62107304502854   -2.58022639715641
H           1.53464781841643   -0.42681277490737   -0.74539035973349
N           0.08424756857404   -2.07507652871931    1.46648573320068
H           0.92803290480062   -1.47134472762553    1.22312075127112
H           0.30181177332409   -2.89988187948754    2.01367709887005
H          -0.45527469713899   -1.33478469839548    1.98764340775260
H          -0.42127806019847   -2.28557712760715    0.56749752499815
