    26
        -50.44423754  Gyration_radius:  2.55662976705 Dipole_moment: 4.558
 S          -0.98375057709602    1.67032153734382    1.31603412275324
O          -1.92459178646620    0.69230152336161    1.81151507329138
O           0.31003773517176    1.60036582637783    1.96395781306496
O          -0.86990985430156    1.65307044908648   -0.14507198883772
O          -1.58561693565360    3.10580530886534    1.63732722123233
H          -1.70211050972308    3.09475177544863    2.58231762232064
O          -0.18611169218137   -2.21212379017130   -0.19883094354888
H          -0.67732546827485   -3.03104188476718   -0.12020632087685
O           0.33384603462600   -0.15294430627516   -3.29486869705969
H           0.32482139525986   -0.77723192046788   -4.02164725084768
O           1.91202600621951    1.36131134753676   -0.14814855108917
H           1.38497037284983    1.88511690337785   -0.75807320440342
H           1.43662836651381    1.43993436591761    0.70289200331416
O          -1.40473040640429   -0.35155203033723   -1.46503051359565
H          -1.26475786372163    0.53058988899546   -0.87749370098377
H          -0.78634797464158   -0.21617135090109   -2.28599413051510
H          -0.97143384087639   -1.11397577842003   -0.93217999801960
O           2.00107494385260   -0.95341753402487   -1.48521229905478
H           1.44167295653498   -1.54076027286931   -0.96010588083985
H           1.08961675157025   -0.42317619042527   -2.68897112461494
H           2.11848735773091   -0.13809864018726   -0.94670761121924
N           0.03110366639909   -1.23074811019056    2.15667717087885
H          -0.80321838424456   -0.63646797304135    2.17455792623402
H          -0.06033515817866   -1.85203558006611    0.76700316027977
H           0.81105000338224   -0.58677112974927    2.23416070946153
H           0.02490484165282   -1.81705243442216    2.98209939268270
