    26
        -50.44986164  Gyration_radius:  2.52913546079 Dipole_moment: 6.783
 S           1.95770069590875    1.66727615837411   -0.80830650611276
O           1.30244549442617    1.56717545501866    0.51407151810919
O           2.67838395680927    0.43934659000126   -1.10443659784239
O           1.04457194128244    2.09144186536669   -1.82958758865079
O           3.07605879238886    2.77596579652070   -0.64782759726454
H           3.85236346174767    2.24339029641124   -0.50826541095587
O           0.88205224535010   -1.40431193042394   -0.95452776181090
H           1.67728282697151   -0.86378742765761   -1.19735631097672
O          -1.46472857228305   -0.88635085308645    2.07901135505645
H          -1.75414684355917   -1.43557623884678    2.80831136285529
O          -1.40671291934988    1.64314167161963    0.76870146362507
H          -0.45776767340269    1.85980374652782    0.75892619209450
H          -1.53583101660685    0.98415235341273    1.46107575998235
O          -0.94694914074788    0.36808684273505   -1.53361864113637
H           0.11374186338399   -0.82973313617830   -1.24257713039233
H          -1.29862715223060    0.83587366792555   -0.74088173644627
H          -0.31810838660429    1.02106483223637   -1.89948926977348
O           1.02941948369897   -0.74354620327599    1.40630589607624
H           1.22322295369456    0.24519965265391    1.14412287670967
H           0.08934242262036   -0.77358732786438    1.77066141032814
H           0.96742882121673   -1.18879306598531    0.37771672798811
N          -2.18273157176000   -1.99105982009598   -0.20276195560108
H          -1.51699677669035   -2.70529787119696   -0.47437909069980
H          -3.11408847874420   -2.37573491866087   -0.29849088479025
H          -1.80622077801974   -1.31178452409089    1.22644183641391
H          -2.09110563949286   -1.23235560143201   -0.87283993678341
