    26
        -50.45450893  Gyration_radius:  2.45151651861 Dipole_moment: 5.293
 S          -0.92136931036028    0.75177566529706    1.71583878009297
O          -1.95168403441183    0.03679135355414    0.82549254913522
O          -1.12178940419887    0.32604585360012    3.05355603186627
O           0.40981334117376    0.53352794289591    1.17912271829388
O          -1.24955434363192    2.25165910274159    1.55114219836547
H          -0.55686885321943    2.66752894087621    0.95218347663826
O           0.19097929152100   -2.38988294631568   -1.04069381470189
H          -0.05803576853210   -3.25204220439987   -1.37607869526738
O           0.75921412909043    1.52737743526918   -2.18041125858178
H           1.16929984472217    1.76454064889661   -3.01291610788652
O           0.69978631723152    3.05192132541952    0.07076460080883
H           0.62016705651631    2.64137979840623   -0.81384382797119
H           1.33514233408298    2.50615451046746    0.54602382187769
O          -1.29228884805611   -0.18350526913708   -1.60178036256098
H          -1.71365325088351    0.01096031979014   -0.17476789101031
H          -0.66943961100596    0.51427607083783   -1.87599747408231
H          -0.76884138953151   -1.00852015647130   -1.52628564852809
O           2.01280175710028   -0.30824823164558   -0.82266488378822
H           1.58754264850381   -0.04124526221490    0.01104159649830
H           1.60294548453733   -1.15919163531790   -1.03919158774426
H           1.34864772591532    0.84797560661329   -1.74317994715964
N          -0.30166981688337   -2.26665709560796    1.57769317146805
H           0.01626837758643   -2.40255429470672   -0.05522557617900
H           0.14110382781199   -1.37694600406204    1.78520885820549
H          -1.29370186014914   -2.11143577455740    1.71701410281648
H           0.00518435505707   -2.93168573023496    2.27795514940276
