    26
        -50.46126420  Gyration_radius:  2.44980087112 Dipole_moment: 8.825
 S           1.10457291109484   -1.48168584350421    1.10119995535659
O           0.08543866534930   -0.52987667086914    1.53862317460692
O           1.14023487638398   -1.51828666135814   -0.37117213876240
O           2.39689372283176   -1.24169586707945    1.67587480452090
O           0.63000791698280   -2.91213675460709    1.55986305680026
H          -0.23661152781103   -3.03669916593207    1.16067356191073
O          -2.77649529424663    0.67391171905027   -0.30934863943249
H          -3.43787668614288    1.30485802420432   -0.59496862301047
O           1.01647053881673    2.16162671476870   -0.86469779178985
H           1.43219074857570    2.97264924945398   -1.16113650259778
O          -1.76036685152545   -1.96353552191035    0.36720771589547
H          -2.60958132362677   -1.51923639955537    0.29459782067921
H          -1.19045784856993   -1.34605040058100    0.86718604038559
O          -0.95554820271382    1.87802366532559    1.13489073047338
H          -0.56637015323553    1.06333705649815    1.50618035060166
H          -0.28243606949179    2.19969013444201    0.51726122261446
H          -2.19392733815521    1.15603618386170    0.34211079869230
O           2.97658955438001    0.57130277292309   -0.15259006262580
H           2.86722282570141    0.04627013877483    0.66892338194085
H           2.98434928151198   -0.10250129683728   -0.83896912391509
H           1.75432589824315    1.59145792874206   -0.51164485544845
N          -0.49283549279490    0.01084448783885   -1.60933543286995
H          -0.57752668669510   -0.27981595181236   -2.57714006169897
H           0.00389930739090    0.91628335123746   -1.52075970551251
H          -1.43261260097473    0.09528068862834   -1.15877010961107
H           0.12044980872165   -0.71005159170310   -1.06405957720409
