    26
        -50.45634934  Gyration_radius:  2.66550123956 Dipole_moment: 5.743
 S           0.11246913829631    1.56441491067724   -2.20892467921409
O           0.15573841992540    2.10486318844606   -0.86986817017839
O           1.35339934124416    0.97202492160505   -2.66014609761406
O          -1.02845939977436    0.65638319894898   -2.38127273571954
O          -0.16036814577928    2.79066519526002   -3.19008952630480
H           0.19682954302952    2.46902176096410   -4.01221198866432
O          -0.09344566122973   -2.33222840644160   -0.00816330973568
H           0.03093314769508   -3.02015741443276   -0.66321149093802
O           1.31377454928309    0.36266765399928    2.22346727699733
H           2.15073316069644    0.58655393021937    2.63116116514202
O          -1.01684833440699    1.55331031130318    1.41629630346246
H          -0.63627657936571    1.99552835111364    0.62673215769064
H          -0.23438640701281    1.21332129262593    1.88232272992281
O           1.61961201336501   -0.47592080843244   -0.47924445175652
H           0.60309970634513   -1.63232350269573   -0.22126294427152
H           1.58287790286971    0.04917407980311   -1.30783835241548
H           1.56284972340955    0.15138561604582    0.25611295668225
O           0.60465490293801   -2.21465522225059    2.63704581442795
H          -0.20051584814974   -2.34460511263735    3.14028501319199
H           0.39060437558771   -2.41026656107442    1.70549800641570
H           1.13854409056343   -0.57919975184814    2.43390347157297
N          -1.91664621120088   -0.31147793769632   -0.17499417495690
H          -1.63063106718917    0.40553330508745    0.57237037729550
H          -1.38046886277797   -1.19049759223292   -0.05262271947162
H          -2.91658856590883   -0.47527801586505   -0.17604541265138
H          -1.60148494249573    0.11176261945940   -1.11929920891073
