    26
        -50.46214874  Gyration_radius:  2.45501152805 Dipole_moment: 8.526
 S           2.04363030514244    0.00781476631462    0.62767059705237
O           1.29155541490387   -0.56333700193951   -0.49583624859108
O           1.25517612811886    1.06699110424278    1.26998979374972
O           2.47961505696523   -1.00046558455113    1.55491798564006
O           3.31507750817317    0.70619652462644    0.03493202716787
H           2.96105813508964    1.35741689037441   -0.58466425473202
O          -1.81819069039381   -1.51147784252619    1.10962342664804
H          -2.36293099281935   -1.98074257512189    1.74321017321020
O          -1.51360869459959    1.66130407500523   -1.64851746929594
H          -2.16900452414091    1.92282361712901   -2.29586693920838
O           1.45668145448728    1.78365943831499   -1.70113665315375
H           1.33534150097155    0.84735969214933   -1.46452565876409
H           0.56659608132395    2.15048002405683   -1.73251338249184
O          -1.11032709740119   -0.92782797425843   -1.58093713767091
H          -1.59306487017443   -1.29296364004728   -0.82868472246196
H          -1.35981020349080    0.68538036381211   -1.77820908598790
H          -0.17867415944863   -0.89339651438114   -1.28490326947808
O           0.50438236508114   -2.68736068368485    1.19317041370763
H           0.71877139008067   -2.93553363891963    0.28991361128133
H           1.25319665001225   -2.10606856229787    1.46313819858044
H          -0.91440340177407   -1.94084623335720    1.16511574294035
N          -1.26420789925796    1.14164101085711    0.99590473774115
H          -0.17095310409868    1.12916569241012    1.11497671990170
H          -1.58001276180874    0.15293120733733    1.09390220084942
H          -1.67866006584701    1.73876776300732    1.70238114704219
H          -1.46723354510001    1.48808806143394    0.03694805632619
