    26
        -50.45935132  Gyration_radius:  2.45171866815 Dipole_moment: 8.714
 S          -0.70733938991672   -0.50005294460301    1.80519249366980
O           0.47772957041989   -0.40940694634783    0.97173671858124
O          -1.76355418754658    0.35491969937379    1.20446119276499
O          -1.14871755555783   -1.85244764511931    2.01805559198376
O          -0.36716389049592    0.11942674113340    3.20215333259097
H          -0.08923036962325    1.02838548506072    2.98647700185902
O           1.16537518488101    2.30659953641582   -0.75487727239214
H           1.72424038156852    3.01221987928371   -1.08165514444519
O           0.19983524540496   -1.48539104902820   -2.09573973958830
H           0.01067181831525   -2.03918013903703   -2.85507385271465
O          -0.13269670474795    2.41146023009800    1.82023745784698
H           0.46564978521630    2.38974664866220    1.05920261036836
H          -0.92309834992550    1.91800707635852    1.55018273619197
O          -0.32372377345300   -3.13928290783581   -0.11203556436130
H          -0.51740263968812   -2.64564917121987    0.71874839495998
H          -0.95107248320561   -3.86474269624740   -0.12492192746333
H           0.09447212975460   -2.06938485527224   -1.30188412077571
O           2.33712557566221   -0.02322386143665   -0.82638174819096
H           1.90956006773745   -0.56153543299023   -1.50378629812041
H           1.71711798957666    1.47165654630835   -0.76012660845868
H           1.85970308803724   -0.27126940794296   -0.01064246837124
N          -1.02050530935120    0.77793988611868   -1.20888805785572
H          -1.77702374806571    1.10891511887057   -1.79812513230184
H          -0.59215239488674   -0.09694996053498   -1.58400182095281
H          -0.26796522329476    1.49097747539827   -1.11867399373305
H          -1.37983480681553    0.56826269453240   -0.19963377108643
