    26
        -50.46513951  Gyration_radius:  2.48514934333 Dipole_moment: 1.889
 S           1.56154903851054    0.92729123293064    0.80474310712607
O           0.30564437321273    1.61869960738769    0.59157097740029
O           1.64594054165142    0.38378729263913    2.15409322263840
O           1.83987596973091   -0.05938169327208   -0.22329603663782
O           2.71995671316328    2.00166006407390    0.68344497567033
H           2.57160851110605    2.54471578939770    1.45027524314124
O          -2.11749684618812    1.02296283335015    1.77934607974342
H          -1.33958850080578    1.58910326113827    1.65472397288265
O          -0.97311761176828   -1.17449618630398   -2.50369090555484
H          -1.39763069919610   -1.33051668996204   -3.34791125221421
O           0.11881113830539   -2.11459550765054   -0.14031955426546
H           0.86940114644008   -1.49158120032833   -0.21043827188320
H          -0.40789869997946   -1.96241146116413   -0.94076522630994
O          -1.95775608462424    0.85710740705173   -0.86947051954010
H          -1.10764222345730    1.25133718672237   -0.62037135047069
H          -1.74094145318721    0.10545814634325   -1.44197359684287
H          -2.43477044882786    0.90670053727663    0.85976689422645
O           1.21542667014829    0.32028189598776   -2.74764960681948
H           1.46285476401037    0.29388008693833   -1.79566870866261
H           1.98994947102275    0.01643016305733   -3.22410779990690
H          -0.17775616332262   -0.61689285835188   -2.68227723288787
N          -0.54549248487586   -1.03979666567569    2.17318855134950
H          -1.30401072761012   -0.29281019414893    2.07190950554042
H          -0.43643592573954   -1.57996420163475    1.26813367335744
H           0.36683586445588   -0.51639497119829    2.30234455967852
H          -0.72731631225211   -1.66057387474358    2.95439929921090
