    26
        -50.45935138  Gyration_radius:  2.45175882101 Dipole_moment: 8.717
 S           1.22650808399538    1.37174878854056    0.78967856088262
O           1.14961745488268    0.13959157211608    0.02601242950268
O          -0.10495808381494    2.02955449617388    0.74439285209268
O           1.69854598406114    1.17677425380894    2.13435433138215
O           2.22780670518378    2.33147209627843    0.06360268336393
H           1.84425962430339    2.42914377606945   -0.82706847633781
O          -0.92547063272772   -2.13221399700927    1.11166503452821
H          -1.38762958127552   -2.74744736068724    1.68351628496558
O          -0.89704627186547   -0.17528768191903   -2.53222753841415
H          -1.14423574330300   -0.41730164953745   -3.42518922478898
O           0.38281349831820    2.33081083749172   -1.88955962131765
H          -0.02942345318447    2.42857657742849   -1.01680542212180
H           0.10976601564801    1.46072734247795   -2.21506098469292
O           0.55581877853844   -1.99750873821457   -1.35963624683085
H           0.03095717323735   -2.40628084865291   -0.66047120326845
H          -0.29362174174782   -0.89719942698287   -2.19110532839186
H           1.03860009060814   -1.28908012566875   -0.89067196020328
O           0.98327372365395   -1.27784452481971    2.71488198988198
H           0.94079255311994   -1.21979433713585    3.67135396827396
H          -0.13961127554890   -1.81992120081100    1.62873690445764
H           1.33038461205424   -0.40426338550342    2.41874111117710
N          -1.74995559380259    0.21164282288461    0.00590799626076
H          -1.58015927265149    0.11984181448110   -1.01669493024637
H          -1.07379734842473    0.98723074975608    0.37005429107461
H          -2.71501265249026    0.45531245352200    0.20172091830832
H          -1.47822268676925   -0.68828433408252    0.45987159046374
