    26
        -50.46513889  Gyration_radius:  2.48490443873 Dipole_moment: 1.879
 S           1.55170141019807    0.94774224067004    0.80115663280015
O           2.11022418575418   -0.01155401413673    1.74499637079473
O           1.59861998711301    0.44165865761066   -0.55625756328287
O           0.23017879345183    1.41387544956635    1.18040293256223
O           2.48382186188916    2.22791046400228    0.86081433455734
H           3.34807679296170    1.85384459563728    0.72619231496779
O          -2.74462535952596    0.41232367967976   -0.94600449494146
H          -3.52717006304038    0.57137042927888   -1.47472059149823
O           1.43756557245812   -2.20659892373676   -1.32379392258653
H           1.92152956290964   -1.37435635639863   -1.20276782486660
O          -1.54066638350843   -0.59475182724104    1.33324333405014
H          -2.09972544882346   -0.42396317689019    0.55885751882009
H          -0.98213844586163    0.20306284141157    1.42213465738668
O          -1.36238717510944    2.64452947603988   -0.50931275069927
H          -0.67810642997181    2.23046873731193    0.06383213315363
H          -2.29393843898794    1.28372803219321   -0.83262662144401
H          -1.71772158005461    3.37540307445254   -0.00066206025200
O          -0.44515096478906   -0.54415518361310   -2.19827586582390
H          -1.30824577743508   -0.31459217359130   -1.82157387895766
H           0.19337726900631    0.04787325819193   -1.77178302284564
H           0.65856479062172   -1.91594733271265   -1.84163722489123
N           0.62728715404322   -2.08467146010898    1.16816215123272
H           0.90497978943832   -2.28835832770941    0.15579929820759
H          -0.33901627045073   -1.65108975850854    1.20564635922250
H           0.68347546010828   -2.91332147160016    1.75028862329982
H           1.28948972759271   -1.33043093976875    1.50788917102663
