    26
        -50.46282826  Gyration_radius:  2.50939650148 Dipole_moment: 5.064
 S           0.19132010376813    1.19980227870912    1.73855490657322
O           0.98111718802269    0.96495492874476    0.54163712416812
O          -1.03566314582318    1.92307911524701    1.49958078769735
O          -0.03289652944679   -0.04888226859701    2.46670642054695
O           1.07152294830379    2.12098539349848    2.67940519536587
H           0.39054246771553    2.52999457112989    3.20214681819810
O           1.73535337661314   -2.77149162153087   -0.06196891648197
H           2.48120054401342   -2.52637350087475    0.48841351671962
O          -1.55171486682760   -0.85885642555338   -1.40312215090144
H          -2.30379603047511   -1.12923595743103   -1.93085679307680
O           0.71675718020718    2.42521933980524   -1.70379419727785
H           1.17543537568546    1.84385874510531   -2.31582540140016
H           0.90906205048793    2.07145852057905   -0.81471120096610
O          -1.79541502673158    1.65408761079449   -1.02334591749055
H          -1.65143332784080    1.80981531026649   -0.06617710941493
H          -1.02184539545989    2.07528663375999   -1.44863832695087
H          -1.66791009155391    0.14097629930396   -1.25162225984918
O           1.23402237819149   -0.68248782412956   -1.57353546100138
H           1.25338794432721   -0.06368746044480   -0.81877213474970
H           1.67852742618589   -2.07440757856689   -0.76806417790408
H           0.29361513260404   -0.78266096388070   -1.78443063818419
N          -0.62723931393981   -1.98114087098972    0.87286789734329
H           0.29058658695535   -2.41648853742696    0.57768378976584
H          -1.23009873239895   -2.66503780794098    1.31724262559083
H          -0.40243785517675   -1.18193852363768    1.55900661272602
H          -1.08200037741375   -1.57682940593813    0.02161898096250
