    26
        -50.46261907  Gyration_radius:  2.60774173846 Dipole_moment: 5.792
 S           1.13832900622208    1.75248151347141    0.45090355294935
O           1.40620099794715    0.39281592367053    0.97308311558830
O           0.15268444746944    1.67107170082824   -0.61746717719308
O           0.77197238370630    2.67937067442068    1.48428582332565
O           2.49612597241951    2.23999383039287   -0.18192662779355
H           2.80888632001944    1.50777293333542   -0.73435915436194
O          -1.53076231844395   -1.60736973515068   -1.26992246163662
H          -2.27264560544067   -1.37517817978015   -1.83065312501602
O           2.92431915899035   -0.36226897572763   -0.97729277426948
H           3.73484257747344   -0.79125470627287   -0.69738114253297
O          -1.82498568922407    2.21862142778545    1.29930648558308
H          -0.92503750126588    2.52322585688686    1.55005661890741
H          -1.89296160129536    2.46062520647031    0.37047539438777
O          -1.79638923574636   -3.01371825423330    1.22172760599225
H          -1.76045188116952   -3.96644044003017    1.31111895504567
H           2.36650215510661   -0.25621847173687   -0.16914253242043
H          -1.71171390417120   -2.81613209499220    0.27864133663001
O           0.46054849989956   -0.31275123040385   -2.32073649913878
H           1.37235435395211   -0.56526127120847   -2.12918077689268
H          -0.72717978331405   -1.22239195738560   -1.72411663688989
H           0.31372734649630    0.50522603490683   -1.79248909836759
N          -1.11619365294870   -0.33886658876076    1.11788497166262
H          -1.34883495688982   -0.70629024339959    0.16870763624182
H          -0.07569100187445   -0.17398233672091    1.15012077310905
H          -1.56207786462365    0.60574326322907    1.27451393779372
H          -1.40156822330549   -1.04882384960209    1.79384179930386
