    26
        -50.46282826  Gyration_radius:  2.50939921708 Dipole_moment: 5.062
 S           1.08994094259035   -0.18812619483168    1.80966942504932
O           1.88962525589851   -1.29225588563695    1.33309396362810
O           0.87935321248406    0.85766873724915    0.82297727189424
O          -0.18309616523927   -0.62946688981128    2.37913020867806
O           1.90982235529716    0.47371120828912    2.99208976043479
H           2.32682544488635   -0.29677374975371    3.36194724161973
O          -2.85230576283231    1.59170950300176    0.16966049470432
H          -2.67824153936827    2.19170922568499    0.89697931702993
O          -0.69621465885853   -1.19888285398128   -1.78617461189097
H          -0.89695245826424   -1.81144513811643   -2.49450283819638
O           2.47387002459520    1.19879204218849   -1.31835079221389
H           1.90348006230831    1.76863262490171   -1.84074926947651
H           2.06161954312826    1.15705478706266   -0.43466222832159
O           1.80156606669547   -1.43107730348663   -1.31041184417358
H           0.29842544781267   -1.30998924094062   -1.60095869741090
H           2.20381754559457   -0.56210323421453   -1.50983930664841
H           1.89629107732174   -1.51647874171469   -0.33836644341187
O          -0.65932647755687    1.55044710249595   -1.27592855514108
H          -0.69752113029754    0.68536005367644   -1.71073441892432
H          -2.11533044791007    1.73377327881907   -0.48177795959747
H          -0.08520041090487    1.41104432378830   -0.49884210990940
N          -1.99016899332664   -0.89452079552841    0.56505545272088
H          -1.51585231817877   -1.11475542523560   -0.34122790247041
H          -2.66469903807749   -1.61243133209628    0.80642963600035
H          -1.24309901960202   -0.81160788032274    1.33653970666311
H          -2.45662855819266    0.05001177850635    0.46895449936951
