    26
        -50.46261901  Gyration_radius:  2.60761492634 Dipole_moment: 5.794
 S           0.33334192623832    2.08905097967228    0.30816587141339
O           1.00388786964750    1.29719598627336   -0.71298073331035
O          -0.77355941908074    1.29710829286854    0.89181405493154
O           1.23264665156831    2.59976467941117    1.30398497456471
O          -0.35158968485359    3.31531072596530   -0.40507065705150
H          -1.07871131160748    2.94533664236241   -0.92822455207524
O           0.05100444429810   -2.29968406260617   -1.11782672645680
H           0.75394820521962   -2.66164481524740   -1.65963623342537
O          -2.41904270462847    1.62293375708671   -1.07379425123329
H          -3.30624078278055    1.86668187047074   -0.80400246212419
O           2.84946874193857    0.50824782488521    1.25061079257252
H           2.38758201243659    1.35287449622577    1.44752173626219
H           3.05616636381106    0.57885997323452    0.31343187088547
O          -0.68172802203471   -3.34880463061846    1.45471508664396
H          -0.61704319632221   -3.20989233294245    0.49966976757041
H          -1.92872658975993    1.38236506583714   -0.25077406480952
H          -1.34490221515495   -4.02548551985704    1.59370454611183
O          -0.56546403112792   -0.07965154833237   -2.31689971855217
H          -0.29017225844278   -1.50768628630655   -1.62429916740542
H          -1.41010399238840    0.35658026470501   -2.14925024266437
H           0.09512472204940    0.46304476392862   -1.82822729127371
N           0.60805024429770   -0.92240603908365    1.17927489914903
H           0.52879752995336   -1.41399868412260    0.26166785398343
H           0.34733286998530   -1.59295755872699    1.90370129888257
H           1.57311580726151   -0.51138189471194    1.30297274976951
H          -0.05318318052063   -0.10176197038148    1.15975058763077
