    26
        -50.46185768  Gyration_radius:  2.64668780992 Dipole_moment: 4.950
 S          -0.18610770365739   -0.88361136695945   -0.65937180608437
O          -0.64950632818718   -1.85035649458720   -1.61674815162956
O          -1.14321715137355    0.38356703255367   -0.73669390985910
O          -0.31881788750918   -1.32770009597123    0.72875975883088
O           1.15427625047763   -0.37578592822553   -0.92958768874344
O          -0.67786123505277   -1.15328232595880   -4.15823553046160
H          -0.61693795196321   -1.54396223251016   -3.25755569612813
H          -1.55132934528380   -1.37738645960843   -4.48313701903020
O           2.53947275440100    1.08800242053723    0.73269814912857
H           2.05990378901018    0.57598522019552    0.03440596283424
H           3.39229498618184    0.66126503795078    0.82762331309289
O           0.16635952891510   -1.80278229588469    3.44897620653101
H          -0.04621640326567   -1.89677747916855    2.50821040766260
H           0.07658283582998   -2.67574129349177    3.83282829663031
O          -1.67394930700738    2.15560070106726    1.29164650821628
H          -1.55331490392994    1.62068119970123    0.48520703855130
H          -2.60823875162588    2.12078578090404    1.50249015138719
O           0.01686226536274    1.08858984351971   -2.88526832317313
H          -0.23929845570288    0.40999049490911   -3.54776462723422
H          -0.83157113455608    0.77944310317378   -1.60829162412795
H           0.80815428496179    0.72970972365800   -2.45500569989091
N           0.38283058597155    0.68107213816358    2.21993175139916
H          -0.33714026301080    1.42118799548863    2.13014591600958
H           1.30600310517337    0.99479005009044    1.83625133432394
H           0.45777529115437    0.30604544986430    3.16480704731177
H           0.07299117285142   -0.12933022690084    1.59367824437510
