    26
        -50.45540827  Gyration_radius:  2.62501527989 Dipole_moment: 4.537
 S           2.00770906522677   -1.53838079386022   -0.95242339480640
O           0.65712643693044   -1.38798080002628   -1.46241093186569
O           2.73459974815501   -0.26343620845602   -1.04278908440873
O           2.05649338902487   -2.11904168794200    0.36713722524381
O           2.76366722547037   -2.53510807071522   -1.92973533354481
H           2.66509059829083   -2.12494709071832   -2.78429704681619
O          -2.62649392375927   -0.89100679380152    0.37911634040116
H          -3.34935452947306   -1.44492855628369    0.67396802148033
O          -0.72383894004591    2.39737710821733   -0.27971629559394
H          -0.92495419992887    3.18718006700750   -0.78196177289921
O          -0.00537869204322   -0.98240749798865    1.49460000385555
H          -0.76984655376236   -1.16362467893325    0.92269994798206
H           0.70728263469187   -1.58759501447587    1.18300301808547
O          -1.31134930389786    0.34728205611961   -1.70764132249235
H          -0.97043065385708    1.61613756294315   -0.87901618140095
H          -0.53911446884439   -0.25737704296321   -1.73876142444801
H          -1.96033651302973   -0.14095712490788   -1.17759321642093
O          -1.98336319310306    1.21425276622309    1.90407454597397
H          -1.58582741888853    1.76763708578263    1.20989730067676
H          -2.60688512147261   -0.10155318593517    0.96599426599458
H          -1.26806163044539    0.70054427867544    2.29271673467520
N           1.41495648929793    1.09125577634889    0.68162965447686
H           0.75942409057603    1.77662083028948    0.25470833626009
H           2.02565819043924    0.61426669639941   -0.07509336741656
H           2.00251398871854    1.52292843243803    1.38676797698194
H           0.83071330572418    0.30286187656314    1.09512602003231
