    26
        -50.45634955  Gyration_radius:  2.66544981637 Dipole_moment: 5.737
 S           2.08882481343706   -1.45315916403772   -0.92962330534677
O           2.59487773755764   -0.64860114806810    0.18954882023768
O           1.51147221039023   -2.70329050753063   -0.48410868757658
O           1.23588322490771   -0.67180086892099   -1.79505062925827
O           3.37098861017364   -1.85281710613818   -1.78779504725853
H           3.67718393553972   -2.63170561485547   -1.33350567642774
O          -2.30795748196482    0.32880190962824   -1.17295913764591
H          -3.02930603492195   -0.08061155249524   -1.65129232562182
O          -0.69269159264273    0.07789880693985    2.22507306661552
H          -0.49630843008904   -0.41923535703604    3.02009671450046
O           0.03795602835861    1.66198172356568   -1.63937649731429
H          -0.87577107271741    1.33382269123578   -1.59015021569819
H           0.54721892533278    0.87353966878358   -1.92709336115687
O          -0.74567499273242   -1.57337944663057    0.25787919076537
H          -0.71686255729492   -0.60652846549896    1.48202743058676
H          -1.05488647124063   -1.07942543677344   -0.51527116519581
H           0.06600213668799   -2.05402513046728   -0.01418810060254
O          -3.03060781990499    1.16050156880597    1.29761511445004
H          -2.97516342962029    2.10534145290097    1.44810894965687
H          -2.66481806832786    0.60311521160287   -0.30154051161448
H          -2.27615583330715    0.75491883107530    1.76456915759610
N           1.14549633316543    1.40583360097085    0.71138266335502
H           0.45817569070086    1.05953414466879    1.40639004046434
H           1.80624328012135    0.57782674326380    0.49283216911226
H           0.65325047495112    1.63469717286529   -0.21603783879916
H           1.67263038342909    2.19676629214554    1.06246919218189
