    26
        -50.45872207  Gyration_radius:  2.53175561124 Dipole_moment: 5.653
 S          -1.85988558977382   -0.23772133830150   -0.67745967398238
O          -0.79015269808646    0.71676148152784   -0.85334923065338
O          -1.39690404580851   -1.42202840667703    0.05251325124722
O          -3.07713844930964    0.33417183650479   -0.15852524214465
O          -2.20078150315367   -0.80914810076357   -2.12929452156727
H          -2.59112355064724   -0.06490245551330   -2.57646966746415
O           2.26217728203835   -0.60584958571101   -2.38366886976559
H           3.19408606861416   -0.61216827527527   -2.60596340923480
O           1.85878457694094    0.14992928548222    1.55754414322803
H           2.35075457875609    0.13168726496403    2.37932770794378
O          -2.35573034604222    2.08954745450254    1.68272753270505
H          -2.65066774795831    1.55391057757366    0.91526126719029
H          -3.11114467367683    2.13823701453505    2.27222371834475
O           1.74279190367966    1.51394071635915   -0.94227168152584
H           2.07834074076654    0.28581546332173   -1.97464607287575
H           0.77247887358851    1.42131556470851   -0.98009460486227
H           1.96302474760900    1.27150132494668   -0.03249482771267
O          -0.64555059753518    0.08818217763623    2.19206997549239
H           0.89226883550471    0.23959461935586    1.81963189394157
H          -1.15394318459126    0.92331729904944    2.10300651587005
H          -1.02435429929251   -0.51093078788062    1.52832484526903
N           1.16042918866970   -1.74004511920901   -0.24143458649488
H           0.09396887711125   -1.63055756787937   -0.21104543030142
H           1.54408568405942   -1.10031995432362    0.49339064291119
H           1.40838533000462   -2.70657685898963   -0.05798603954588
H           1.53579999855986   -1.41766362993297   -1.17131759594400
