    26
        -50.45717729  Gyration_radius:  2.52454067855 Dipole_moment: 4.852
 S           0.34706693531849    2.01971585462586    0.37985477136175
O          -0.72895627403616    2.22800624645040   -0.57488231928772
O          -0.11788330220569    1.16094128013704    1.47077427070409
O           1.57398924578200    1.54823435336873   -0.21515151512791
O           0.66828113696447    3.43060794648548    1.02411332235152
H          -0.18785938094956    3.75395814652592    1.28820271174910
O          -0.32178076504072   -0.91388271972245   -2.29668633230308
H          -0.75066863650164   -1.23798264741209   -3.08975919850924
O           0.36203530735262   -2.57144488215723    1.31763913448538
H           0.57800274452635   -3.49171035701870    1.16361279023097
O          -1.26380856554395   -0.86812627983981    3.07196059823850
H          -0.84855947151703   -0.03306797118560    2.82532853895600
H          -0.58649979128868   -1.53824598104076    2.93687027994707
O           0.53833764639090    1.49159127350760   -2.72552795867482
H          -0.06750933855478    1.90996765029469   -2.07429653973204
H           1.39080776114894    1.53450662816496   -2.27357041385853
H           0.01579462241543    0.00536453058034   -2.52460168284107
O           1.78648586150481   -1.12156968139169   -0.35437315629280
H           1.03214736207553   -2.03907812057521    0.81713636584580
H           1.27760119196156   -1.21481640422420   -1.16966733704670
H           1.83933551114058   -0.15899477667715   -0.19214657790372
N          -1.33195653322530   -0.78541810430506    0.22094555434822
H          -1.07795712355942   -0.78950832438512   -0.79169683133820
H          -2.33531243458234   -0.77206848737586    0.37388050643978
H          -0.89511603174456   -1.61090522569668    0.69324537105974
H          -0.89601768783280    0.06392603286758    0.69879564719700
