    26
        -50.45450933  Gyration_radius:  2.45197999003 Dipole_moment: 5.289
 S          -0.70635411323498    1.69797828800049    0.99073458994506
O           0.54583710015490    1.01475228907630    0.72167401537800
O          -1.87837399979247    0.79278984997527    0.57517035128211
O          -0.91196855878150    2.09815450884998    2.33550839294690
O          -0.79461220682734    2.90363913294851    0.02996913704294
H          -0.07968943347915    2.80800279962061   -0.67043374479959
O          -0.24198480838759   -2.56688224056195    0.43125013946538
H          -0.64009033641811   -3.42082442913940    0.60470015182689
O           0.89384213800074   -0.04693544193619   -2.62097347231837
H           1.29875625233424   -0.36897370725933   -3.42710073220264
O           1.17473999389888    2.44363545654246   -1.56560053425678
H           1.74260812005541    2.15481597806221   -0.84355576452527
H           0.99067538104747    1.63617494671324   -2.08654572101827
O          -1.37617993151951   -0.81364290876807   -1.30684397172292
H          -0.98944412755615   -1.53696757415733   -0.77053227913701
H          -1.69289456993647    0.18979549660326   -0.23712305372519
H          -0.66295682771088   -0.48783257354507   -1.88573949029272
O           1.89807109762017   -1.02082470433015   -0.42380759205375
H           1.56006795820126   -0.28009247172170    0.10943960431335
H           1.34712396313638   -1.77440019454018   -0.16381287616826
H           1.38628578195946   -0.46264882852105   -1.85622002361087
N          -0.59026085911185   -0.96626099106673    2.53576076193631
H          -0.37243949054165   -2.01516998514187    1.25612159797424
H          -1.53435443329135   -0.59776829759809    2.51155098473588
H          -0.37282560260705   -1.18636652800413    3.50069596855810
H           0.00642151279783   -0.19414788011560    2.25571358041967
