    26
        -50.45248441  Gyration_radius:  2.40930603557 Dipole_moment: 11.098
 S          -1.56719872090848    0.45222368409822    1.52556623174711
O          -1.85348829671038   -0.96973251270214    1.34776755688564
O          -0.87096401093330    0.95585869189431    0.31406632166728
O          -2.67281684710275    1.25703122595182    1.91567067935292
O          -0.45538001034495    0.56477070209751    2.65178137449114
H           0.34108527484824    0.20044438157831    2.23473831242781
O           1.75986510914981   -0.53834085825322    1.44070393078181
H           2.35533902150548   -0.90184895888992    2.09722398536673
O           0.08132423923082   -1.22732070546161   -2.12965878153624
H           0.03583875110931   -1.38489119274243   -3.07356250247598
O           0.48359476283870    2.89120877469830   -0.63979777898094
H          -0.22287759993890    2.29807479215879   -0.26965426647000
H           0.71681731413661    3.48783751601829    0.07353968687868
O          -2.25107766720176   -0.48949498313912   -1.31147243662208
H          -0.85427427802240   -0.96442497922086   -1.85238472866355
H          -2.60286923737027   -1.08157994943812   -0.63509721668584
H          -1.84286093029497    0.22515103705430   -0.76817982745703
O           0.18263767299408   -2.30283060290326    0.52748040569516
H           0.14361106993902   -2.19201259588036   -0.43122705213610
H           1.17898912040349   -1.31122017543797    1.11349226949982
H          -0.65352050423658   -1.88160482782470    0.88068755876661
N           1.73596451829920    0.58525090663670   -1.01642509897159
H           1.05614118110838   -0.06116300761260   -1.49878482070949
H           1.29796615913173    1.55103588200016   -0.94012976955180
H           1.85681249964244    0.22411110226541   -0.04487200962097
H           2.62134138872842    0.61346666305517   -1.51147205368085
