    26
        -50.45248423  Gyration_radius:  2.40914704221 Dipole_moment: 11.092
 S           0.28673148524818    2.15304154795155    0.51666048271604
O           0.88122389655065    2.17912909522630   -0.81802836603464
O           0.33480483363997    0.76209713941673    1.03536433473134
O           0.79412745762245    3.11417552792119    1.43377477227478
O          -1.26751551852623    2.41645813292117    0.33806650338671
H          -1.59485810431617    1.61308545017134   -0.09598993869748
O           1.38766611379503   -1.77382886867920   -0.98867877762713
H           1.99582633052929   -2.51281425709206   -1.03370449882724
O          -2.13101325067618    0.13965576865117   -0.95058227324504
H          -2.91549948767079    0.32360662382547   -1.46873499993083
O          -0.55231264702494   -0.80534013560835    2.83731485371119
H          -0.09277163525137   -0.09109604973758    2.32101265930379
H          -1.25862093126784   -0.36385043192779    3.31237500561664
O          -0.02137190344040    0.32363417105843   -2.34719245488964
H           0.54030640485883   -0.43125279682799   -2.12898137368233
H          -1.33637522952368    0.21573919989247   -1.58666520293772
H           0.36354375103935    1.09887227466114   -1.84492157417394
O           2.63850863201074    0.25407954432134    0.00014894405202
H           2.64063309069800    1.00902944935960   -0.60135135815491
H           1.86773015039428    0.45517320043240    0.58149721738167
H           1.92476095422277   -1.00160991229609   -0.61939092148616
N          -0.90733652153662   -1.84007380906715    0.42243907003104
H          -0.78092754538875   -1.52317532115853    1.42934115682642
H          -1.49512770332437   -1.12222481525239   -0.05517419486269
H           0.03161589628485   -1.83309493481209   -0.05824398872929
H          -1.33374849895183   -2.75941580335045    0.36964491324632
