    26
        -50.44806660  Gyration_radius:  2.62573283689 Dipole_moment: 6.895
 S           1.01388658119047    0.58363359513750    1.95433244589940
O           0.46241195771570   -0.47714119374078    2.80236049796710
O           2.01481433682085    0.00981101201107    1.04563746326271
O           0.02672953058118    1.37566010099572    1.28511890949524
O           1.80124891130749    1.55381666738746    2.92839956446567
H           2.37180105718734    0.98158500142520    3.43344983861554
O          -0.84266086781559   -1.89296557987895   -0.85328042465230
H          -1.50379375616587   -2.44083655387207   -1.27750051543383
O          -0.01509894734715    2.05397096188270   -2.70814899383649
H           0.09596631349339    1.87673852813039   -3.64318010018001
O          -2.45783001525109    1.93742373256898   -1.59194457848955
H          -1.58270460200269    1.98691571806170   -2.03737494424932
H          -2.50970386352987    2.72900040969881   -1.05312141257182
O          -2.03179156838338    0.04960915662903    0.25093457041182
H          -1.33910846988563    0.54130754242477    0.73770606609523
H          -2.31409734109724    0.67695183359344   -0.45654382610363
H          -1.35759839212754   -1.11615844543190   -0.42106678193794
O           1.20632978511311   -0.04062686767661   -1.55857490510151
H           1.54337715664005    0.14738061825720   -0.66577398891340
H           0.49048172666243   -0.68250480132972   -1.45366483233536
H           0.49967945623160    1.36031745457427   -2.23778055543435
N           0.88573733706378   -2.30106085351655    1.09757193787661
H           1.62939490927703   -1.61180421899716    0.82698622138256
H           0.15980650799763   -2.31521599031232    0.33049965996045
H           1.24510204016482   -3.22283232734727    1.31919912303767
H           0.50762023617795   -1.76297551069218    1.94575957077382
