    26
        -50.44806660  Gyration_radius:  2.62572034791 Dipole_moment: 6.896
 S           1.42111743376123    0.15967857755499    1.77300704856781
O           0.62980022970418   -0.59784218836229    2.74695177401552
O           1.98918687183487   -0.76427171270210    0.78292481353209
O           0.72917001075968    1.26688158780217    1.18578621390384
O           2.64711794361443    0.75727519043720    2.57910480845941
H           3.02119074890081    0.01301206430149    3.04200540834605
O          -1.61404391052064   -1.42238098145622   -0.62310782325002
H          -2.48617223643342   -1.67371471771405   -0.92874977502478
O           0.39581922797803    1.87400644599603   -2.80754669315367
H           0.29698359956081    1.65913249423615   -3.73603128471588
O          -1.72032234194146    2.72823040371626   -1.38661043315759
H          -1.38656436871501    3.48071343707647   -0.89467557868263
H          -0.96565264202916    2.42896416612452   -1.94120395114788
O          -1.80270245068925    0.83785314726260    0.50043470162865
H          -1.91744684296035    1.52004628683930   -0.20325757079462
H          -1.72688702133867   -0.50338662443507   -0.17795324667485
H          -0.91400854763932    1.02522373315412    0.86603096644695
O           0.86916889923049   -0.51988674575785   -1.69165904789894
H          -0.01620244155521   -0.83137131446524   -1.45790385943290
H           0.66592475845747    1.03903976302435   -2.36335242333485
H           1.37340268525165   -0.46940720790838   -0.86142860257818
N           0.07919007982424   -2.45534382233089    1.11663051482978
H           0.98459091896626   -2.11172098581344    0.71266400456433
H          -0.69600173001473   -2.19215094059234    0.44934318749328
H           0.08398377507130   -3.44258756599931    1.34743203626373
H           0.05935734092933   -1.80599249000932    1.97116481179066
