    26
        -50.45529490  Gyration_radius:  2.51415500689 Dipole_moment: 7.414
 S           1.65059130383579    0.75537804124216   -1.09108987773024
O           0.91323285074498    0.60245330143135   -2.34446166814141
O           0.99442460011005    1.65859989276674   -0.17362053728895
O           1.97928053539462   -0.53669373754034   -0.51189682763852
O           3.03734173989381    1.42020080312096   -1.46844968663999
H           2.81468130073983    2.31835197318438   -1.69619481106042
O          -1.67341770319771   -1.60334706086714   -0.27085826071186
H          -2.59226984190084   -1.86246152081974   -0.35131228472846
O           0.46301593989870    1.27791279879954    2.51495962436541
H           0.75459191348142    1.59841487654288    1.64756746847576
O          -2.16102784858093    1.53806114451019    2.27421201349395
H          -2.53034525439914    0.90246659928134    2.88855237834612
H          -1.18979279942370    1.56735099470146    2.46821373927677
O           0.49713624693733   -1.32300394792205    1.64150595695852
H           0.52320784688319    0.30656544242192    2.44764915538366
H          -0.31659256934039   -1.52885054997972    1.16602209932384
H           1.14818534975196   -1.06697217197684    0.96677221510789
O          -1.61788586055036    0.94191900794385   -0.28080174304872
H          -1.67222171905732   -0.58280333531009   -0.27103099020792
H          -1.94247850054773    1.23949335213365    0.60058864005076
H          -0.70617008690456    1.28008468404506   -0.33887889938699
N           0.30876949190987   -1.82980192428180   -1.99236348077833
H           1.12633130543362   -1.80445451174017   -1.34855692472500
H           0.39256286958392   -0.82927983052645   -2.38195836423147
H           0.36458783176673   -2.55753197043697   -2.69606403647754
H          -0.56573895253345   -1.88205235066316   -1.39850492777684
