    26
        -50.45529484  Gyration_radius:  2.5144252074 Dipole_moment: 7.408
 S          -0.76999431770708    0.69514306310542   -1.84747785213935
O          -0.74564751850681   -0.66398152473170   -2.38664677437115
O          -1.62316441269863    0.81081253140041   -0.68696162551403
O           0.57564825613757    1.20508160113686   -1.64276998563618
O          -1.40749482817380    1.60898314525186   -2.97263384824998
H          -2.32795546264493    1.36256035283762   -2.98358857605412
O          -1.05598660161655    2.00016645232376    1.74653719060641
H          -1.43209660328493    1.72772747662838    0.89547275922932
O           1.50876174275920   -1.60755089563306    0.75765562712669
H           1.72530153540663   -2.39838191130052    1.25307756087031
O          -1.44588523712178   -0.19412822547753    3.17650230373996
H          -1.41740717484062    0.69220842793182    2.73439964158624
H          -0.78472700623802   -0.16125992266232    3.86904683190216
O           1.46702688354381    1.29082287207228    0.93633278046998
H          -0.09131407774621    1.92918234947875    1.61939399801835
H           1.60166328341018    0.34283176194869    1.05441185120796
H           1.18530570044993    1.41206285199411    0.01403327063959
O          -1.02568004789700   -1.37149497279012    0.80661315145906
H          -1.32946057007551   -0.66105882067765    0.21334173931678
H           0.49197124310385   -1.52737977025547    0.79341374319634
H          -1.26767397862470   -1.06648530641886    1.71157728359005
N           1.67972294137537   -1.11975141423910   -1.82657923459831
H           2.35048413373151   -1.56615677194003   -2.44203852076412
H           1.74298632150529   -1.44881908814083   -0.82282519400668
H           1.74034951488168   -0.08080487057436   -1.82272834482785
H           0.65526627159164   -1.21032940230056   -2.14755978713060
