    26
        -50.46529211  Gyration_radius:  2.49743658101 Dipole_moment: 4.490
 S           0.89726441879458    0.50278497307209   -1.25561559661690
O           1.47969443985311    0.92600819336441   -2.49527986844912
O           0.09752878709386    1.72404149267248   -0.61991927025531
O          -0.11415925083254   -0.54842915351607   -1.42585949893426
O           1.84292592491469    0.12934556419277   -0.21162129537994
O          -0.50662950734173   -2.60064582000040    0.19808625455313
H           0.04840647424771   -3.34497305436355   -0.03767099996643
H          -0.34980101532222   -1.91537896363518   -0.49220179191844
O           3.02507972937010   -0.39005136320800    2.28865399528396
H           3.92997266738879   -0.13703599968039    2.47527672982541
H           2.87316388278228   -0.18460392888419    1.35470799403037
O          -1.59493903793674    1.25268204785363    1.60175576270593
H          -1.07704540032074    1.87515444914306    1.07655371244340
H          -2.14994007840330    0.78236057829721    0.93947474286469
O          -2.54727436687217   -0.22274925752240   -0.41542514622058
H          -1.67996056619016   -0.28940061958223   -0.86832378850286
H          -2.78635153814752   -1.12409419779595   -0.18842737753281
O          -0.94690834677504    1.82069835245471   -3.01374667029131
H          -1.49266132948532    1.03757787581994   -3.12167607161060
H          -0.44347289801295    2.01177041554797   -1.38654165938139
H          -0.02528302911701    1.53934036881277   -3.17316122393109
N           0.29254441106022   -0.57784606429910    1.78791444633036
H           0.89498855727179   -0.66318762075056    2.60565331393371
H          -0.08827520811778   -1.49371442111220    1.47949531185142
H          -0.48596920110202    0.13423715685995    1.90641445915836
H           0.90710145104742   -0.24389099182329    0.99148354707805
