    26
        -50.45376606  Gyration_radius:  2.45968871891 Dipole_moment: 4.215
 S           0.38546552784654    1.21891251943508    1.51607680356509
O           1.71373756211946    1.09694494012001    0.73869776656198
O          -0.65394633087584    0.59633126419573    0.73957955976589
O           0.53994861856046    0.72008964531134    2.84202441999642
O           0.14532675506944    2.74373781014835    1.56345925183086
H           0.09251928659776    2.99415029299375    0.60312601304310
O           0.11666148694937   -2.49237579880664   -0.34136186047195
H           0.56110859833441   -3.33847640973035   -0.41136873348312
O          -0.68806269053519    0.89786703247333   -2.50198963412815
H          -1.10238473255576    1.05168038400394   -3.35196508330787
O           0.28458720972524    2.97200190720974   -1.01913914043981
H           1.22186691058792    2.80027603057597   -1.14300762488878
H          -0.18820662427123    2.26154794094749   -1.49942042308727
O          -2.02062592817653   -0.82251467108444   -1.04929140612881
H          -1.44421403103717   -1.59818159374049   -0.98795993573495
H          -1.79066297523020   -0.30364001860790   -0.26049614856299
H          -1.28592359445098    0.27547444157361   -1.99836443840842
O           1.42672729982901   -0.35033662612705   -1.29975818248821
H           0.98138472478969   -1.16122039562262   -0.96551962463184
H           0.75828754605468    0.10336977170550   -1.84438941995226
H           1.62089107609650    0.48829665643417   -0.09487608308510
N          -0.12755417930913   -2.04148476070975    2.26246267827300
H           0.01733857287573   -2.30041528232379    0.63998587829205
H           0.41625343971225   -2.60571818843273    2.90520481731840
H           0.12097865758493   -1.06743474391030    2.43380815328980
H          -1.10150217628834   -2.13888214803126    2.52448240686797
