    26
        -50.44443798  Gyration_radius:  2.50944173981 Dipole_moment: 4.861
 S          -0.27774561628917    1.99926818397161    0.88885114613710
O           1.17553811766668    1.99668965906858    0.66506262897969
O          -0.95983086608515    1.42747242040645   -0.26801595309152
O          -0.66574133300983    1.40777794022389    2.13563734982359
O          -0.67745933734320    3.52672423059050    0.93001377675513
H          -0.29488752606124    3.84006247655956    0.11731324696340
O           0.69229702710608   -1.97701143467636    0.41199347091500
H           1.03711478574028   -2.75284211517665    0.85447561713995
O           2.43605349739917   -0.05695700460571   -2.27041950398929
H           2.80841868538312   -0.78247682575417   -2.77374004872039
O          -2.97787941413252   -0.36503471129173   -0.55132719882513
H          -2.75254537607326   -0.69151900299864   -1.42562915515125
H          -2.41154241919631    0.41618463119290   -0.41689869841558
O          -0.10088627554088   -0.53123532461281   -1.86074929525051
H           0.00143160423972   -1.23196362915229   -1.20124164446398
H          -0.42401067461834    0.24596090941217   -1.35795378109213
H           1.44589720810848   -0.16872306432273   -2.29281033668092
O           2.37854941956340   -0.11602457192832    0.28728534897258
H           1.67653915288530   -0.88993192660164    0.39841080534572
H           2.55181130631362   -0.05533368901605   -0.71749608127950
H           1.87957122396041    0.80238184714586    0.51479641055916
N          -1.36517173650505   -1.21852740592847    1.63418238438314
H          -0.20667459164400   -1.67129152733514    0.97316387301536
H          -2.12169465447881   -1.13215462633418    0.95137912204441
H          -1.69748794645691   -1.75517495674931    2.42445817849893
H          -1.14966423093610   -0.26632050208484    1.94925834743149
