    26
        -50.44443808  Gyration_radius:  2.50951814818 Dipole_moment: 4.859
 S          -1.02179200648031    1.59449847041902    1.12981128359686
O          -0.27597779534347    1.71470607268544   -0.11906791131594
O          -2.11675313576093    0.62638301636719    0.96785474472564
O          -0.19420154094626    1.33669282671514    2.27149923254427
O          -1.74044865333865    2.98296359109594    1.35389565291438
H          -2.32934907581647    3.00950858393732    0.60725619931327
O          -2.02559393206972   -1.53166505340948   -2.15481605364974
H          -1.87685226862664   -2.28100369411303   -2.73334631107903
O           0.85663631007658   -1.94773904565753    0.17887062751850
H           1.17185278742659   -2.78034784248035    0.53103264709558
O           2.37052330589870    1.78170347404908   -0.71796147947242
H           1.44889859806346    1.96290963237173   -0.45924572785816
H           2.31868365760374    1.45095066588297   -1.61782764605396
O          -1.63977111646184   -1.71150383561172    0.36856348054314
H          -0.59436110600470   -1.81314403053917    0.34829464969740
H          -1.85728844197519   -0.71534852201435    0.69291280921107
H          -1.92717111243837   -1.71529654706940   -0.61155411136980
O           0.20708247733835   -0.19464065814331   -1.91681003225479
H           0.67731775854745   -0.82332120662847   -1.35109503264454
H          -1.22477356955946   -0.94352524420599   -2.23284027524476
H          -0.01280396079411    0.55989865241908   -1.33065052179512
N           2.01152405577022   -0.08440614196926    1.40268377806999
H           1.25582125727135    0.44758195712561    1.84795648650470
H           2.70748203402733   -0.30787562072546    2.10172073895256
H           1.38135726631407   -1.15462469731304    0.73667961201486
H           2.42995819728109    0.53664515681211    0.70618319003718
