    26
        -50.44706775  Gyration_radius:  2.48419316581 Dipole_moment: 6.051
 S           0.63418157672952    1.88499098531310    0.22832558046847
O           0.76523120519598    0.94994845650229    1.36621425748791
O           0.45763096544540    1.14182527043023   -1.00827201355598
O          -0.33163938349664    2.91026290143944    0.47127465753718
O           2.05238473860202    2.58479790716482    0.10092340340823
H           2.58544150847020    1.96091397624178   -0.38419212395076
O           2.57260926862723   -1.69619382878943   -0.98669627938741
H           2.92347521376761   -2.56044403645718   -1.20783279343843
O          -1.24815356003685   -1.97587995570558   -0.22163156826732
H          -1.83502413823919   -2.55731769837272    0.26375535481988
O          -1.73818758171829    1.67500964380641    2.41618039636741
H          -0.96572560286809    1.23280453599876    2.77934884453335
H          -1.36329472932051    2.35308718076520    1.82730691892771
O           0.93683057942330   -1.45966658470388    0.96314111377902
H           1.66722775751137   -1.57079449984408    0.25786372927943
H           0.87530547061997   -0.39164327532294    1.16140104746595
H           0.04304945996157   -1.70815000612972    0.50227435811360
O           0.43969215586535   -1.15554765051628   -2.37332290748814
H           0.40197524939717   -0.23130194604367   -2.06394075013698
H           1.85839110861394   -1.49283972260007   -1.65691413769978
H          -0.27588883456561   -1.60447357032829   -1.90429013964305
N          -2.15367761760957    0.40517192013393   -0.10216403540731
H          -1.68362200290331   -1.01943395331921   -0.19134679056425
H          -3.00494985176556    0.66605193406570   -0.58360896711134
H          -2.22887269600518    0.73391050230346    0.86483935182156
H          -1.38439022782892    0.92491150400114   -0.51863648683198
