    26
        -50.47126434  Gyration_radius:  2.39778741822 Dipole_moment: 2.930
 S          -0.95100290901719    1.12342417647446    0.07076757827183
O          -0.17164861853055    2.33744482268382   -0.09886970897812
O          -0.30263121078868    0.20930521897286    1.02385446939028
O          -2.34400147928905    1.32268222572344    0.36946167578461
O          -0.84631585223712    0.40082912134058   -1.33486355901175
O          -2.78604203092236   -0.99479480807582    1.48503867060928
H          -1.99049948467551   -1.05113217140741    2.02242760416876
H          -2.79513801457316   -0.06429870216170    1.16101052524666
O           1.72105695494038   -0.51540943603075   -2.00955237237980
H           0.86454491599522   -0.18258316058967   -2.30630911504380
H           1.48848716182698   -1.22112994358296   -1.35655534172120
O           0.62833863658708   -2.02585984610961   -0.12993706644931
H           0.33648640388854   -1.25829295792200    0.40084394836417
H          -0.18218676441987   -2.41486124399992   -0.47556818608025
O           2.03851783291783    0.75815351703095    2.11901378600244
H           1.89500021545218    1.40029422379159    2.81569625887932
H           1.14389276979375    0.47804963845074    1.81892032577326
O          -2.12823504398025   -1.83952627396728   -0.88633315615737
H          -2.43209406125891   -1.64315318214398    0.04648352596892
H          -2.92612973640948   -1.93927603344759   -1.40882824502492
H          -1.35009760145847   -0.44451692938209   -1.22504271832754
N           2.25023524318678    1.52368148427863   -0.43034465447746
H           2.93235181120935    2.19798402765486   -0.75970067004742
H           1.26774227112269    1.95416229559206   -0.36656984165243
H           2.18002939852680    0.68565513093155   -1.08720975241671
H           2.45933917211783    1.20316879589740    0.54216603931337
