    26
        -50.44706787  Gyration_radius:  2.48431480498 Dipole_moment: 6.046
 S          -0.22380202276871    1.85878784814921    0.70940058564446
O          -0.62778514280397    0.60800944124054    1.32978885099823
O           0.82664372423495    1.60641636025057   -0.30046449458760
O          -1.28963232059980    2.66360076771991    0.20040647464163
O           0.49459615742787    2.68627584747543    1.85668135197468
H           0.94378264966262    2.02924822976237    2.38132044174088
O          -0.20543443343958   -2.05818797892205   -1.11313648803516
H          -0.17105830552127   -2.45312071573057   -1.98544941278148
O           2.22920603801235   -1.40992115113582    1.87360930865610
H           2.76604567075443   -2.18855194366837    2.02993828017561
O          -0.89510427928967    2.22233307142286   -2.43394468636978
H           0.06015278333570    2.16299952746963   -2.34390676325096
H          -1.18546697324756    2.60825716151546   -1.58913255028857
O           1.80695201245906   -0.62650931428211   -0.52268699220273
H           2.07697450922826   -0.90453562589678    0.42215361499313
H           1.01191797965862   -1.23283503985391   -0.79161321739189
H           1.39185963127459    0.37572048255339   -0.43008051856276
O          -0.29757276024762   -2.01167320429088    1.74013382111728
H          -0.42644969338728   -2.32388130120894    0.83488877302024
H           1.27512640961835   -1.68776145607907    1.98833186852732
H          -0.57903604845191   -1.07783954730347    1.72620293052560
N          -1.86959022990186   -0.12526989569636   -1.14164834402212
H          -0.93700367484365   -1.30519040043316   -1.15530945377329
H          -2.86344962202571   -0.29128244855050   -1.23764886893696
H          -1.70601315031900    0.28318582923409   -0.22420436446726
H          -1.60585890873972    0.59172543616729   -1.82363014730587
