    26
        -50.44706765  Gyration_radius:  2.48425532831 Dipole_moment: 6.053
 S          -1.25609488203382   -0.55136026802368    1.45751017305947
O          -0.00331173686369   -1.17845459448909    1.07032952531690
O          -1.28966663193906    0.84857062468300    0.98266090235820
O          -2.43812910464777   -1.27540760921039    1.10889800624494
O          -1.20603457529555   -0.45126632827054    3.04015673008805
H          -0.28822725222874   -0.29122310384454    3.24191406825795
O           2.64214486800846    1.13705818204229    1.48013756449726
H           3.49960740634015    1.55326430588150    1.37797607123391
O           1.11921696618459    0.36101130713999   -2.03276438565496
H           1.02612623686528    0.79855194080351   -2.88008888195340
O          -3.27641188733107    0.28876419746733   -0.92510437450550
H          -3.24939742906517   -0.36145704475922   -0.20144271774543
H          -2.95440467315206    1.09869297170306   -0.51961828900193
O           0.70359886282084    1.85540423824030   -0.02275874922582
H          -0.18815329119045    1.42967360853237    0.43322760692679
H           1.46747341455974    1.66336542187752    0.62765402305913
H           0.88448981932759    1.28208695471447   -0.86598366397971
O           2.46701468819845   -1.03526062278926    0.06112979395614
H           2.69975921156904    0.24149023081814    1.03808647403267
H           1.61218946278772   -1.29272670961855    0.45408838893615
H           2.24937522157784   -0.72807055160880   -0.82872438912161
N          -0.91103272399061   -1.13247285075146   -1.64238854864455
H          -0.75920290491918   -1.41567274639832   -0.67693514692709
H          -1.05954249472454   -1.96803529691842   -2.19409047777140
H          -1.78345127339394   -0.59616419155585   -1.64797716472840
H           0.29206469252802   -0.28036205571137   -1.93589254871372
