    26
        -50.44706794  Gyration_radius:  2.48419336012 Dipole_moment: 6.050
 S           1.16263541812259   -0.00707304689901   -1.62878992047001
O          -0.26735051695736    0.33790992340539   -1.77996297856935
O           1.56535428398305    0.13853222407292   -0.23978067406969
O           1.48996570333512   -1.25960690007317   -2.23443722775763
O           1.94764553974877    1.12465171125872   -2.41633434848929
H           1.98498723665285    1.85826382637394   -1.80879112622977
O          -1.32650804696905   -0.54661329559674    1.85944626028823
H          -2.16115427986135   -0.95084615619129    2.10033864600483
O           0.05397749003267    3.03404090230998    1.12033524682659
H          -0.28588557981596    3.65395326253750    1.76770737453046
O          -0.98804207130535   -2.32939252502257   -2.29550330092109
H          -0.04840904341329   -2.14788288203161   -2.47220706101935
H          -1.41886350548237   -1.48358364951017   -2.44771855885783
O          -1.50850660384810    1.28261882979506    0.10772454654523
H          -1.47588429578940    0.54507003932564    0.83364195839918
H          -0.93749154472669    2.05550361213082    0.45361520910203
H          -0.97018121684736    0.87527836133590   -0.74652574396259
O           1.08018914286163    0.93556407745382    2.26398450426773
H           0.32252733499758    0.36849251520144    2.45869917169109
H           1.44591122807079    0.58806269863716    1.42916236196255
H           0.56464550540430    2.33791478076987    1.62552033867846
N          -0.01848920970338   -2.16172126706214    0.38067897363702
H           0.75584405536787   -1.56997206766681    0.08810612869455
H          -0.53405248596372   -2.39806976549466   -0.47201382317666
H           0.36712112325116   -3.01928655431032    0.75541959665123
H          -0.79998567116338   -1.26180864473836    1.29768444626817
