    26
        -50.46047703  Gyration_radius:  2.51708611395 Dipole_moment: 5.333
 S           0.28872264703056   -1.44896162868739    1.63167189389581
O          -0.68578713503422   -0.42126932706094    1.30085201800060
O           0.26273494782971   -2.60256505457207    0.76929811544810
O           1.62014811264941   -0.85661520975054    1.76576903891467
O          -0.11216717340481   -1.97678189079521    3.07671249651534
H           0.17415530457848   -2.88265778192445    3.02600189511798
O          -2.09532613439748   -1.13199544207501   -2.47291497635738
H          -2.41758587624417   -0.84211366470168   -3.32699517870089
O           1.10871245268792    0.92073270134553   -1.73451819014796
H           1.67907991968315    1.03097234104487   -2.49607342778160
O          -0.86813502462798    2.19994289693065    1.68926209551708
H          -0.96440121598267    1.24284045709526    1.86461486301719
H          -1.42220577421171    2.34952148202164    0.91252880276604
O          -1.57061808808871    0.97443903484961   -0.83197325651599
H          -2.11956700426908   -0.35208141171333   -1.88147653168217
H          -1.36088954642004    0.37043934331825   -0.09364615647423
H          -0.72290293786122    1.14250715254215   -1.26685373307110
O           0.49855698482536   -1.56754163279436   -1.66566753804071
H          -0.41454799336840   -1.60589238691324   -2.00871098716649
H           0.91267077405281   -0.07314439502494   -1.68520196283238
H           0.46439309828629   -2.01080551891858   -0.79323675106037
N           1.56815596564062    1.53661235230653    0.84304054873115
H           0.66639160299154    1.95814786412180    1.19992555302240
H           1.49544888243200    1.39636415254593   -0.18995541789452
H           2.37307124412792    2.10092244036234    1.09083552003487
H           1.64189195703675    0.54898311643259    1.27671128675100
