    26
        -50.46047705  Gyration_radius:  2.51706356314 Dipole_moment: 5.328
 S           1.98782472508326    0.18106199103367   -0.92757707736128
O           1.47123507369112   -0.01325808846871    0.41798039240711
O           1.80768770470101   -0.94357440758732   -1.80962924405171
O           1.48609612267989    1.43833286584593   -1.48335324392195
O           3.55921464199507    0.36006716213932   -0.76645879182404
H           3.86980412694566   -0.00715562091593   -1.58730207355124
O          -1.02526647767066   -3.25203183067503    0.39812595634551
H          -1.79881924004589   -3.73024943506901    0.69851067202869
O          -2.18043340711344    0.34891290122612   -0.46025315493831
H          -3.02036562973089    0.38491069587320   -0.91919745488189
O           0.61216375722252    1.58591454968803    2.35691385540652
H           1.23505256409545    1.06110243425010    1.81599109783358
H           0.02524849513520    0.92288785141540    2.74241491068448
O          -0.79705505412364   -1.44268954846863   -1.66226239433369
H          -0.83744824182785   -2.22044661152948   -1.07380078718514
H          -1.62153964033759   -0.32535073593860   -0.97181472120450
H           0.15754154292316   -1.27370485723420   -1.80002877355735
O          -0.76493076948565   -0.85967200330782    1.66864850224020
H          -1.42623350937705   -0.44702539180856    1.09560559080756
H          -0.88761030486879   -2.51312522575651    1.02558003150009
H           0.09031660760561   -0.69784027546195    1.22567663987275
N          -0.40768536952233    2.31662899906506    0.00805180944637
H           0.40517092703243    2.01446759247472   -0.63759112974363
H          -0.66732213863582    3.28107079382071   -0.16567279623687
H          -1.19644877717986    1.66037932712670   -0.19006299603095
H          -0.07619771924535    2.17038686838526    1.00150518032992
