    26
        -50.45450894  Gyration_radius:  2.45158694779 Dipole_moment: 5.288
 S           0.65302789344729    1.14341229091786    1.61981868058570
O           1.74494466142881    0.14756388052157    1.19432886515457
O          -0.56441930189011    0.86524545819903    0.87957800097154
O           0.53726110461323    1.09634209417794    3.03234624174252
O           1.18155817540632    2.51526964351392    1.14757769130623
H           0.67323356005853    2.78876305700786    0.32412016010269
O          -0.26617923690797   -2.56942202574673   -0.39920326055889
H          -0.06060193582402   -3.50440713905596   -0.43585435679361
O          -0.13596900705818    0.90093272425890   -2.61364654082051
H          -0.34624067069610    0.92107345517558   -3.54792977473194
O          -0.33346055459636    2.98774228943458   -0.88090659998930
H          -1.10993546668347    2.63799398872822   -0.43137535466433
H          -0.13330712588568    2.34168857039762   -1.58794121080104
O          -1.83735872202530   -0.40369337530336   -1.13423052921426
H          -1.49614201909610   -1.30426002347590   -1.02658281850691
H          -1.55347591631121    0.05946651927735   -0.32668968219875
H          -0.87499522784898    0.40743208464214   -2.15491684623915
O           1.54791709374949   -0.70151752833457   -1.17541763772138
H           1.70405080214359   -0.14214937989469    0.20840648348689
H           0.92608638706290   -1.43942592528187   -1.00463305686612
H           1.07695083578173   -0.07162774482662   -1.75103480288350
N          -0.28064994121292   -1.75011358670653    2.13888928757281
H          -0.28869414966585   -2.31697330151916    0.56907463768588
H           0.67678181296092   -1.62463684524744    2.44759201591791
H          -0.64525382638805   -0.81198926479451    2.00586264543974
H          -0.79512922457771   -2.17270991606649    2.90276774201568
