    26
        -50.45376624  Gyration_radius:  2.4598667392 Dipole_moment: 4.189
 S          -0.63651984144282   -0.71119249820200    1.73588294720219
O          -0.90771328108486   -1.83393506675261    0.71146774251633
O           0.15916478171559    0.30388461023123    1.09757637836185
O          -1.85932458874906   -0.25729270818913    2.31007533921199
O           0.20868331286141   -1.42042803550096    2.81611912291485
H           1.00646225549040   -1.73002998648525    2.31071790517431
O           2.49480904017339   -0.53833248182774   -1.00906943057112
H           3.37188775407601   -0.49131386846348   -1.39162078776242
O          -1.05348936845186    1.33339070395156   -1.86094781367353
H          -1.66939000850307    1.47988961317741   -2.58030267364424
O           1.97820933106965   -2.20818017767794    1.08702984941037
H           1.45289063383062   -2.86082305529702    0.61644794267259
H           2.21330027214199   -1.52227647218140    0.42882809369378
O           1.43527696740220    1.82989197764897   -0.67004889657129
H           1.03028739994130    1.50832927749925    0.15267451214990
H           2.19092715291749    0.40303810656975   -0.86824501108703
H           0.69307484656305    1.86461873510341   -1.29090168229392
O          -0.10548979670065   -1.16521867570684   -1.57744517355967
H          -0.60378457273369   -1.56900365736078   -0.24341158402781
H          -0.47332732778369   -0.26370933724919   -1.71794517185851
H           0.85548233955862   -1.03813679609913   -1.47976738322570
N          -2.43897185796337    1.80154143509426    0.35327214554910
H          -3.44896847105670    1.85784289472406    0.29124822188634
H          -1.56044391515968    1.50290690260394   -1.01001674986812
H          -2.11323560275426    2.66526193127926    0.77104630829092
H          -2.21979745543639    1.05927662906313    1.01733585915592
