    26
        -50.43975744  Gyration_radius:  2.71283026913 Dipole_moment: 1.602
 S           0.15435265860052    1.62513289990044    2.05789786452080
O          -0.86642049447260    2.30033458857037    1.14512048021175
O          -0.41262564652600    0.45570065536904    2.66212763704642
O           1.41285485759958    1.47753682826631    1.40363786281572
O           0.32009951546986    2.71560731885014    3.18430831694506
H          -0.49213196590485    2.67880497322069    3.68321406331886
O           0.09529814378759   -1.49912544563238   -0.36733008381511
H          -0.15171066712479   -1.90087627848506   -1.21786198741438
O           0.51849467464713    1.09376836778244   -2.69418844541613
H           0.83969231002834    1.89779579990342   -3.10239145818835
O          -0.10562952056959   -1.65395785552842   -3.08611807681335
H           0.70920567219309   -1.97578487144607   -3.47555053359681
H          -0.04041164178214   -0.68626168800254   -3.09377025465787
O          -1.26860598453799    0.72439441941151   -0.71076033997331
H          -1.08186170884759    1.64083949242481    0.33425951810622
H          -0.78908099342563    1.03737314885090   -1.50537805753642
H          -0.80291438553230   -0.12429332172449   -0.47723733706918
O           2.17133462788841    0.19893430777127   -0.87661174516901
H           1.22591068224714    0.79783776094706   -2.05174273423085
H           2.10765885813387    0.75615202605507   -0.08406966337054
H           1.64685865000712   -0.58700139907232   -0.64753977339930
N          -1.11509358474339   -2.28140924573732    1.87681466645146
H          -0.35035050987227   -1.97113724866548    0.37774666196792
H          -0.71244524276715   -2.97256999218933    2.49735817487353
H          -0.89066015651626   -1.36263302634615    2.25813343031635
H          -2.12181813733526   -2.38516217542256    1.90993178366000
