    26
        -50.43975753  Gyration_radius:  2.71275857075 Dipole_moment: 1.605
 S          -1.84966510875560   -1.79755901131937    0.50037089961293
O          -2.10889125023274   -1.49532530383170   -0.87644803797752
O          -0.54618705583699   -2.58119927625530    0.63651992664784
O          -1.89958737682603   -0.71521661944453    1.42734290545962
O          -2.90136251067728   -2.87766186320558    0.96176539895558
H          -2.93685303228595   -3.50831467109512    0.24688041109057
O           0.25319046515338    1.27412551929069   -0.84224713134223
H           1.11218847039247    1.70964394696092   -0.97802945372416
O           2.10461706889157    0.44844384130945    2.02150376935148
H           2.31378274654210    0.19937888616763    2.92178170114221
O           2.72164229792689    2.20016685602638   -0.13164174019149
H           2.66073185315061    3.05461719263914    0.29894524893849
H           2.70632658419284    1.54132256585136    0.58005151522991
O           1.24592864571799   -1.03386255035879   -0.05993447355290
H           0.25651216020882   -1.95064234087726    0.32691803533582
H           0.80355416540442   -0.22142705621262   -0.42861061357553
H           1.70821387218394   -0.70105506452658    0.73673133541825
O          -0.30152492638142    1.45241511718811    1.82490490784793
H          -0.95354762884020    0.73609825714955    1.89120862029669
H           1.19395807649584    0.86198673215477    2.04416554667759
H          -0.25396058076490    1.63219680060675    0.87064127376577
N          -1.10949123626100    0.33902895792804   -2.93591585589176
H          -0.18028829396787    1.09195400530411   -1.71132782939544
H          -1.85521751672037    0.86322583571835   -3.37640547007759
H          -0.64202191811568   -0.19816051747467   -3.65584590664233
H          -1.54204797091153   -0.32418026923914   -2.29332497343669
