    26
        -50.46212483  Gyration_radius:  2.51237915086 Dipole_moment: 6.142
 S          -1.22409050649316    0.22538523791128   -0.32354952731020
O          -1.49320358692999   -0.23132719969742   -1.65882407441767
O          -0.20344872262473    1.27746467706268   -0.27324275516047
O          -2.53163624435604    0.79508055159633    0.27267122382864
O          -0.80737648805048   -0.88844198335136    0.55611305261257
O          -0.18823946175653    3.22731564564857    1.47782670820883
H          -0.20692064224695    2.58705665803918    0.72913307915822
H           0.73792626358067    3.39775481010662    1.65615726891064
O           2.12909772774207    0.48121401887149   -1.18748211765105
H           1.32879209193699    0.98405382803200   -0.91352796966386
H           2.06656824112358   -0.54441167095083   -0.14003722232944
O          -0.00985518044093   -2.97439555600668   -0.92715371051009
H          -0.69944719136077   -3.47608100695416   -1.36445682178468
H          -0.47202431199248   -2.26111111526197   -0.43861040447266
O           0.76844158658554   -1.07019832307288   -2.80704749524565
H           1.80883415270035   -0.03351620268651   -1.97231181202927
H           0.71247166856072   -1.92445032226767   -2.35162806455691
H          -0.09557817119213   -0.65515998105560   -2.61389014542914
O          -1.89550842793067    1.59109476850552    2.68138469769213
H          -2.29724699940808    1.01043424658310    1.21067708654499
H          -1.23208339383292    2.25618835610882    2.38482445833260
H          -2.65191343501735    2.09015179650195    2.99742343326251
N           1.73684319702420   -1.29869837177761    0.60182732214819
H           1.77151302910318   -2.23037427957824    0.18938578370985
H           0.69490989335129   -1.07541750673832    0.74121201728305
H           2.25317490195411   -1.25961105557130    1.47312598886107
