    26
        -50.43975750  Gyration_radius:  2.71272778489 Dipole_moment: 1.607
 S          -1.53380324873873    0.80000947759151    1.97680512672609
O          -1.84904915198737    1.79123573757604    0.85904767704760
O          -2.09633561497666   -0.48406381787408    1.67851357462463
O          -0.15260833595832    0.84238392814922    2.32894612399057
O          -2.35608007504712    1.41942479666290    3.17077013418347
H          -3.26920365081705    1.24323539807118    2.95818849136654
O           0.61654874435980   -1.28065593370821   -0.61173647079109
H           1.05897810346612   -1.34917596523516   -1.47517848211644
O           1.87715556647237    1.94201535518462   -1.19318773342672
H           2.20918787915364    2.82509621128699   -1.03129849222345
O           2.23255938016384   -0.47012007260083   -2.65793537344665
H           2.08583249449970    0.43636154693633   -2.34558300366327
H           3.15180196902274   -0.66769378559447   -2.47046474195577
O          -0.63755034834540    0.97368830360818   -1.12943668437806
H           0.16012373561061    1.52515332538993   -1.26675023756936
H          -0.26531568557739    0.07966664129857   -0.89741259773709
H          -1.35564491294701    1.46295162471736   -0.02823117594949
O           2.12902676913356    0.40811635453508    0.90925004618275
H           1.46085099596870    0.65660941516915    1.56839821435127
H           1.75651806593503   -0.38788967000426    0.49350939964562
H           2.05340577653802    1.41423511590354   -0.36184254251397
N          -1.55389530506430   -2.74682715351971   -0.10763401317541
H          -0.09220743593732   -1.96477993327426   -0.53396395627286
H          -1.81984192929869   -2.02822352148819    0.56524615238646
H          -2.29978156560393   -2.81401813320161   -0.78918258527175
H          -1.51067223903926   -3.62673519491597    0.39116314550076
