    26
        -50.44781899  Gyration_radius:  2.50182427716 Dipole_moment: 4.224
 S          -1.15603712489631   -1.51779369917080   -0.54399999439859
O          -2.48363939338563   -1.29026897503813   -1.05084299969082
O          -0.11225615986079   -0.91915108202380   -1.35760941472425
O          -0.99973792706715   -1.16260096881255    0.86848877497728
O          -0.91844075698429   -3.08931279936207   -0.58209366234514
H          -1.33715479146231   -3.35519489316899   -1.39458374513887
O           1.00364972307913    2.08262551337351    0.50893709634329
H           0.88893522703646    2.85707564652093    1.06133530833483
O           3.06604319583765   -1.18337505392344    0.71404681928126
H           3.93892360514527   -0.90813199091719    0.99900845354619
O          -3.24336329819358    0.51671411373138    0.79011342672130
H          -2.77476242704550    0.08842968292678    1.51179047518364
H          -3.22037837292573   -0.14172543627822    0.07238349347425
O           2.28779942669707    0.24904030856709   -1.30918700897297
H           1.44885670943685   -0.22045508716727   -1.48590543379301
H           2.02783282606911    1.08705283541573   -0.90661662054458
H           2.88929642834964   -0.73457550809756   -0.16160137453582
O           1.03138049374308   -0.10483454721332    1.78466509695437
H           1.03706562759707    0.81463173547578    1.29860308879729
H           0.17203827656212   -0.60567813394012    1.41284113144490
H           1.85169690185917   -0.62103065699177    1.43848819573660
N          -1.15501770369048    1.65432054630366   -0.77480118586835
H           0.10708247703497    1.96802820580866   -0.03358676434112
H          -1.45459730195943    2.28763257155664   -1.50521349192595
H          -0.94329578985311    0.75455669753550   -1.20278585278315
H          -1.95191983112451    1.49402097488521   -0.15187382172919
