    26
        -50.44483766  Gyration_radius:  2.5130420171 Dipole_moment: 4.674
 S           1.12098520057023   -1.33511974955191   -1.29784395416828
O           0.49501523092749   -0.04296797588255   -1.49382464431401
O           2.35136539018341   -1.28823642595006   -0.54738851635693
O           0.17391065590062   -2.31020085050107   -0.73755989381519
O           1.48300975581647   -1.87905897424763   -2.73821340716606
H           2.05369138786721   -2.60728068974805   -2.51776192430072
O          -0.45460795356022    0.48862180715243    2.02321180219877
H          -0.42760251585855    0.48493118430289    2.98040294199541
O          -3.31254675162772   -0.54850886538884   -0.21669547837420
H          -4.07783046476216   -0.22243938217461    0.25915809560801
O           1.35441866119905    2.50484269086002   -1.08406659962334
H           0.50623748757340    2.95214114387368   -1.13359111887539
H           1.18795303737241    1.60377548308959   -1.41227530628238
O          -1.38048670230249   -1.64844074036708    1.04461821123879
H          -0.69608668074374   -1.97152198357737    0.28030159828607
H          -0.96987420756990   -0.79270028252186    1.47315941107217
H          -2.21383796518553   -1.33288213248593    0.54269839595502
O          -1.52795689762951    1.34818417610045   -0.42704338688707
H          -0.84279050577513    0.87373208582165   -0.93865865423728
H          -2.74895173798464    0.24296168092376   -0.43836501332203
H          -1.19777161680478    1.34947095233386    0.48265031886755
N           1.89939687436742    0.83972104414052    1.18645992264826
H           1.87231359364958    1.63474073099489    0.54513817573191
H           0.56603440332562    0.63591623904367    1.68811575944602
H           2.14756288413747    0.02393000678237    0.61778602274308
H           2.63844946690824    0.99638881697593    1.85958723193151
