    26
        -50.44483783  Gyration_radius:  2.51321630753 Dipole_moment: 4.673
 S           0.70201437987843    1.26351749173601    1.62273685940740
O           1.16277837191593    1.02078573108440    0.27048046391314
O          -0.47595882898313    2.09090840315434    1.70612777046177
O           0.54360599204869    0.00642080525479    2.36876300393560
O           1.86410870137592    2.04548002703966    2.35762369534571
H           1.41477287627566    2.33991622549330    3.14252492714077
O           1.52595520354206   -2.99972207328227    0.01317029494735
H           1.40821359866412   -3.81375760615569   -0.47862168905364
O          -1.65377203700029   -1.10921854319317   -0.75520586721265
H          -2.53987840805852   -1.46164689993385   -0.84253288989255
O           0.50013584659019    2.12232528663395   -2.12684595088961
H           0.90005884472743    1.46638445750013   -2.70277474866140
H           0.84571823736857    1.92739175072800   -1.23810076537488
O          -0.43597365725060   -1.96734541008819    1.28555953425049
H           0.36814508073435   -2.45884720443762    0.88838722551595
H          -0.02321489698746   -1.11208826878133    1.79164003893053
H          -0.97298959248194   -1.60303689196035    0.47135440754328
O           1.04120237275818   -0.95181883824305   -1.53513743589339
H           1.22083776227537   -0.22500138076846   -0.90617099352710
H           1.51907872016566   -2.25563229727823   -0.64982295023839
H           0.07592627168456   -1.01098968782699   -1.57155042125117
N          -1.83470472528786    1.40422059481536   -0.62349019821644
H          -1.22094565832150    1.78423570849402   -1.34658955956063
H          -1.75713751473111   -0.03204143948321   -0.69564977384008
H          -1.43214286834011    1.69558644843192    0.27281766339744
H          -2.74583406255246    1.83397362105952   -0.71869262118250
