    26
        -50.44483760  Gyration_radius:  2.51300690478 Dipole_moment: 4.673
 S           1.68228882667659    0.38321031064352   -1.32162926414192
O           2.38727713906915   -0.84341636100133   -1.04302817781108
O           0.25916943390825    0.21483625946941   -1.53698312483090
O           1.95279805938300    1.41349993942690   -0.30825684681606
O           2.27451140984900    0.95472123183408   -2.67236959152179
H           3.20666074020346    0.83766124705233   -2.52388990112374
O          -1.47906336775368    2.85697354730176    0.98595356581071
H          -2.16776037963754    3.07242911709487    1.61659049980132
O          -0.57888511535607   -0.68726496736253    1.93108855290142
H          -0.52299186169919   -1.06440555740367    2.80943720953670
O          -1.29930371351322   -1.98236183073068   -1.91229672209589
H          -2.15701701242260   -1.57730523635756   -1.76319821975207
H          -0.67612858646306   -1.23913647986691   -1.99374889169955
O          -2.00161117405268    0.56029307971158   -0.14506472307178
H          -1.80739002334994    2.08398135907824    0.44935287094131
H          -1.24015850148378    0.50152122931532   -0.75567465685098
H          -1.77312155744228   -0.02748033295510    0.58906745156455
O           0.58588898534570    1.54520430731715    1.72742080910401
H           1.21436206236267    1.49707373066794    0.85555646619787
H          -0.17351344544048    2.18230927870968    1.47605583556092
H           0.14391181382912    0.60789333238051    1.83029195429201
N           0.46676368859512   -2.32366893161587    0.32072102859450
H          -0.22294147191677   -2.50157892149156   -0.41193997358361
H          -0.11996384789356   -1.40442471665713    1.25925988501428
H           0.79552254370826   -3.21311557965513    0.67384316610212
H           1.25069534548689   -1.84744904490023   -0.13655920211806
