    26
        -50.44781908  Gyration_radius:  2.50181393023 Dipole_moment: 4.221
 S          -0.45665309357655    0.44182222585081    1.87887465439958
O          -0.38252953829330   -0.89716838073958    1.32076209838490
O           0.57426517311144    0.72238696557606    2.84307357549443
O          -0.56265490356144    1.45299439321700    0.82425831162978
O          -1.84123645442089    0.53639119397281    2.65442316857142
H          -1.64524369354925    0.14925621521297    3.50167987661395
O           1.00166522112886   -0.47879687427926   -2.09034895842518
H           1.56783948833828   -0.09131430597287   -2.75920915922925
O          -2.81139929174176   -0.91475257074220   -1.60310811657842
H          -3.13912884150141   -1.20833672741851   -2.45477205244376
O           2.05147007670015    2.35118231359396    1.29512518319366
H           1.29203176787344    2.75347671783487    0.86473359211362
H           1.66445421081946    1.85906848632353    2.04164438636009
O          -1.04330968355788    0.90712641077178   -1.53252218365184
H          -0.20430975897117    0.35608341842021   -1.80448420420187
H          -1.83958612751833    0.25579526418075   -1.55978710050344
H          -0.88623409098573    1.15979481423440   -0.51308733577304
O          -0.79236536148640   -2.37445041390373   -0.86509621836903
H          -0.06238108762149   -2.03840018386017   -1.40000009343301
H          -0.66357619983992   -1.97919465494734    0.01954612765302
H          -2.16417766403660   -1.60685952160472   -1.28461313399093
N           2.13779161348852   -0.26687857136418    0.18036625344347
H           1.52617077773388   -0.40872344678915   -1.17875782554198
H           2.31906057694512    0.70846547168125    0.43461684315274
H           1.39018501119752   -0.58639528752586    0.79400717496613
H           2.96985187331845   -0.80257294172468    0.39267512617569
