    26
        -50.44483764  Gyration_radius:  2.5129802766 Dipole_moment: 4.675
 S          -0.27646925340521    1.69530188184953   -1.33148753879536
O          -1.53131029147227    1.25672559482355   -1.89032616225407
O          -0.18743489747560    1.55914334673219    0.10844740275414
O           0.87167686057884    1.06722478888512   -2.00142522258294
O          -0.15183871024814    3.24099788383532   -1.64273303392652
H          -0.42084917156225    3.26366358253959   -2.55472816829331
O           3.24829169652181   -0.48810237096986    0.72966957123462
H           3.73591188530592   -1.16843765466689    1.19632287899069
O          -0.11134378201221   -2.12008833290411    0.17024568115293
H          -0.29017248378219   -3.03521743459069   -0.04785581351406
O          -2.03621715951257    1.01213884227193    2.02627942525048
H          -1.43779569620498    0.80049650622925    2.74670789855388
H          -1.47652291057804    1.41338954838518    1.33844036618618
O           0.92176262958649   -0.13076392971914    1.86372032072783
H           2.46296645399737   -0.25253807559204    1.29629328948747
H           0.57237140064867    0.58714717059169    1.29922942676064
H           0.47396236192259   -0.92924021247469    1.54983086484269
O           1.72729659165381   -1.10181770352376   -1.23105908579181
H           2.43892904427143   -0.85617711184736   -0.53893068143593
H           0.94903237387817   -1.53585690739983   -0.69184769580970
H           1.35965578609558   -0.16205090208393   -1.60349390207942
N          -2.24220898711314   -0.81443045686721   -0.17450815381939
H          -2.05225023401819   -0.09592376175606   -0.88028473012559
H          -1.03802094273824   -1.57970187118697    0.01008579043211
H          -2.42814084665534   -0.31381020919532    0.69666391436158
H          -3.08128170766921   -1.31207221137100   -0.44325666231060
