    26
        -50.44483780  Gyration_radius:  2.51302453478 Dipole_moment: 4.678
 S           1.56455630253864    0.91039578051039    1.20278143030985
O           0.64111690502927    1.42135030840022    0.20983386154896
O           0.96235021684756    0.63426321366487    2.48346191476664
O           2.31787744895083   -0.24379417308046    0.69073800101518
O           2.64133559005892    2.04502356583381    1.43733269214380
H           3.07540840846370    1.72231799728036    2.21968490919247
O          -1.28181976806098   -1.68871602217281   -0.20395191377844
H          -1.72667429107836   -2.51332679486008   -0.00621868850056
O           1.15660954760641   -0.98682400633575   -3.00154723689493
H           0.78750160109015   -1.48855523676417   -3.72984367191633
O          -1.91330920991208    2.34217635610655    0.36755738315296
H          -0.94921861176282    2.21478207271561    0.40815726687667
H          -2.13143408016325    2.32200652703372   -0.56728610448128
O           1.19014352833413   -1.97039095792244   -0.64251032488335
H           0.17628742311110   -1.87815507687696   -0.42301880530411
H           1.29419058847805   -1.64673195486532   -1.60710198695172
H           1.70467956905234   -1.24063085998755   -0.04280794983072
O          -0.70765253676360    0.47553690953163   -1.90052146344080
H           0.47224276390378   -0.31246975380115   -2.73661435158232
H          -1.18703258459838   -0.21855428152526   -1.42610816858274
H          -0.17855592316978    0.92559434064439   -1.21230065817404
N          -1.60962202316608   -0.14433089443199    1.76383057594800
H          -0.68091771488729    0.09203504068793    2.12727807642365
H          -1.43213374117775   -1.04517141941878    0.65576300950349
H          -2.18554874237923   -0.45355390367184    2.53621570390379
H          -2.00038067634362    0.72572321330597    1.39719649953514
