    26
        -50.44781906  Gyration_radius:  2.50181295616 Dipole_moment: 4.222
 S          -1.45283965142694   -0.93069797590994   -0.97900513238303
O          -1.22004919643791   -2.20272157993783   -1.61065686426048
O          -1.25763958343272   -0.95146112256995    0.46023053812811
O          -0.71857108080025    0.17432486953546   -1.59994484020069
O          -2.98226107397233   -0.57419166411393   -1.22643980205687
H          -3.42104525922133   -1.41408457144962   -1.13591758404213
O          -1.29517986955350    2.69372561813868    1.54173211209632
H          -1.06030145444363    3.43139583226221    2.10708289933323
O           1.99602528054979    0.72211197094626    1.04726143533268
H           2.90754407063422    0.94630731655590    0.85509535759538
O           1.13104299920177   -1.58496258311713   -2.76015474368528
H           0.29217680863482   -2.00916474063818   -2.50394027292384
H           0.88049388814123   -0.67875080843229   -2.95972621211026
O           0.29957353570979    2.01758362269904   -0.31554927348380
H          -0.39497005388587    2.36607766790042    0.35919240521312
H           1.02532750568168    1.52179077476741    0.24040365723451
H          -0.17694986205368    1.25747928701012   -0.88361639638253
O          -0.43927781084821    0.46603494700163    2.56943005828507
H           0.50604199935840    0.47494468229984    2.37389385834775
H          -1.10701809396347    1.85849699283729    2.05788449348406
H          -0.83062427717790   -0.14002837130028    1.90990579350552
N           1.48251187669193   -1.57181974600302    0.06474115459300
H           1.83989924242778   -0.24694099071162    0.66280395623038
H           1.61538138872127   -1.59807439885331   -0.95038017985468
H           1.90347063354194   -2.40568845199026    0.45437890190294
H           0.47723805792373   -1.62168656692710    0.22129469010293
