    26
        -50.45450929  Gyration_radius:  2.4519263157 Dipole_moment: 5.296
 S           0.91381686697085    0.78037788587398    1.70891613130185
O           1.88545435794266   -0.14367100386606    0.95559814172047
O          -0.40020069159576    0.69451937283862    1.09787295886560
O           0.97310080573491    0.45498980291402    3.08782534116546
O           1.45704655979456    2.20200010794912    1.44721755471070
H           0.87275665861488    2.64657620961289    0.76030406370539
O          -0.47067284301263   -2.42920346461484   -0.84110013000283
H          -0.32892995113682   -3.34529991994492   -1.08288725793832
O          -0.40422359380653    1.39839964091200   -2.35561315322372
H          -0.72666371490628    1.60690134241993   -3.23312850051359
O          -0.25799243898527    3.10995175994325   -0.24682297178131
H          -0.18527399247352    2.60867183658517   -1.08387211511758
H          -0.99407545730811    2.70742444062103    0.22581080751801
O          -1.98547749188133   -0.10629138303425   -0.93440393984723
H          -1.57629299220909    0.17862491933640   -0.09855362745180
H          -1.10959233894098    0.85238181113362   -1.90326716540771
H          -1.68948649893582   -1.02224578408105   -1.04601265658317
O           1.34349209553653   -0.51176589473884   -1.48241930262425
H           1.70303854113809   -0.23611511021249   -0.05262118119810
H           0.70382360479107   -1.24614769542330   -1.37267147973903
H           0.84424516818574    0.23441756516949   -1.86191380891912
N          -0.11194316944383   -2.12582276768412    1.78379860212692
H          -0.35494788708327   -2.37185810672003    0.15152674802185
H           0.88298266130851   -2.08892351832152    1.97483793638256
H          -0.44039060223164   -1.17059548494715    1.88544275740816
H          -0.54359365606645   -2.67729656172221    2.51613622742053
