    26
        -50.44771818  Gyration_radius:  2.47434316716 Dipole_moment: 3.713
 S          -1.17974257441996    0.71771759640994    1.75643718489523
O          -1.41064473252365    2.04861133802562    1.23883011191027
O          -1.82254813495642   -0.30650086615520    0.92173797343327
O           0.21016203283062    0.40180574168198    2.00096512294460
O          -1.91257432701246    0.64896800394829    3.15843733246787
H          -2.66972924739821    1.20647602036269    3.01121542238019
O          -0.20883636639938    2.13537935945730   -1.08666863256210
H          -0.71407240427372    2.31967628796689   -0.26155238229529
O           1.02399696771635   -1.59687286088632   -1.06059518695066
H           1.24174214580040   -2.31203973847851   -1.65878986852910
O           1.27126357945057    0.59507237908323   -3.08207481882079
H           1.99081490914796    0.81431325426143   -2.48485505420556
H           0.74513320487672    1.39307241568163   -3.17396800181463
O           1.87294108478788    0.87693548700024   -0.06492134256012
H           1.82468548047290   -0.00944435029989   -0.45459659465658
H           0.68767244485553    1.86171520749510   -0.76454617867010
H           1.44389827100195    0.78777053541362    0.80657192156715
O          -1.08046396169162   -0.16848356072120   -1.45130671801782
H          -0.74185551503156    0.84899593555745   -1.44902054724798
H          -0.23100524914814   -0.73143363655209   -1.46620303294713
H          -1.47645917315761   -0.28083727679680   -0.49301866401369
N           0.21221339758372   -2.33068909449401    1.30291684001767
H          -0.77720713635387   -2.54649638653310    1.27385011826128
H           0.75549302176552   -1.98791724201366   -0.16355495269134
H           0.28114300673368   -1.39874010206256    1.71758114734830
H           0.66397927532479   -2.98705444734154    1.92712881076902
