    26
        -50.45634922  Gyration_radius:  2.66536403705 Dipole_moment: 5.731
 S          -1.85495251589251    1.64517121281421   -1.08970129978685
O          -0.44115827162678    1.94243954648756   -1.10007508729816
O          -2.26866657252430    0.65399694617850   -2.05981845266889
O          -2.32251021076347    1.32156284986024    0.26406025483158
O          -2.61013878699801    2.98803299700038   -1.49752315206785
H          -3.43646732603609    2.65485333873879   -1.83382042318063
O          -0.45253165043752   -2.07312564512350    0.95951634974402
H          -1.20644331215264   -2.66355467476281    0.98845969366885
O           2.39395973626554   -0.47491995894827   -0.92321954825540
H           2.93102961478612   -0.66178593760303   -1.69351316037701
O           1.55069863578731    1.64614144874411    0.58852727346592
H           2.03629637663036    0.96450053907116    0.09394086689528
H           0.90620125983019    1.98738986964580   -0.06866725947845
O          -0.36243544122685   -1.02950877475321   -1.38589175403012
H          -0.44535412378299   -1.69595967298736    0.02190527694636
H          -1.08339087269336   -0.43813731848680   -1.69322314689734
H           0.46017214396745   -0.52145800568791   -1.43549589504548
O           2.23207928691268   -2.57790698308178    0.77150084327501
H           1.26155483256868   -2.55311971964283    0.86769855669333
H           2.40196398014999   -1.28394001287247   -0.36894503821401
H           2.60172355233878   -2.43722068328025    1.64448321062162
N          -0.45045131616754    0.51258029772616    1.82478676952844
H          -0.59478436534280    0.76130924618320    2.79640186427550
H          -0.43345844105236   -0.51514002814686    1.68700966984727
H          -1.25761750439582    0.89203441299809    1.21319496907689
H           0.44468129183033    0.95576470995676    1.42840859843912
