    26
        -50.45592089  Gyration_radius:  2.62482429976 Dipole_moment: 4.123
 S           2.16780213153362    1.54938287484535    0.12325381402762
O           1.29876842842123    2.64190859472928    0.52551072137169
O           2.60364343540907    0.75443520091094    1.27920713637025
O           1.60000514388192    0.72082960285983   -0.91114701195779
O           3.48324687014425    2.21133259609830   -0.47260642879044
H           3.73873321565585    2.83274541478730    0.20331704601720
O          -0.42799116974726   -2.49006124183138    0.32668811732762
H          -0.23667900337082   -3.42664302001106    0.27377973605293
O          -1.96326697798848    0.18660316621826   -1.96874232089126
H          -2.62987016544866    0.57132802445711   -2.53798466932831
O          -0.99150699751216    1.39723411457484    0.41819974431856
H          -0.22681428722958    2.02220018451771    0.42303417703168
H          -1.09775641717679    1.13052863335870   -0.51040730960418
O          -2.79243907435168   -1.02887727616820    0.26732134398197
H          -2.56420188152675   -0.24560020013720    0.77735393559199
H          -2.43445479169425   -0.32396474053748   -1.27199892333254
H          -2.05139568031670   -1.65256035508215    0.36057371840654
O           0.31027327432256   -1.38080566566007   -1.86494326092794
H           0.93645416540883   -0.68231102603922   -1.58886363180308
H          -0.12627656048473   -2.09505688863366   -0.55963876606967
H          -0.46804564449968   -0.88445163620245   -2.16396002534555
N           0.36908626030622   -0.38432679852367    1.79935888477503
H           0.22961407889711   -1.31370059409186    1.35278304841640
H           1.36943840767534   -0.00942089818980    1.63597893008128
H          -0.25816479780097    0.31557679977117    1.29200444446418
H           0.16179804787770   -0.41632484571888    2.79192752984899
