    26
        -50.45592079  Gyration_radius:  2.62476843906 Dipole_moment: 4.126
 S           0.95117112615106   -2.47610861548172   -0.28068223641719
O           1.14825896495977   -2.50738954318058    1.17477180032578
O          -0.39165654672959   -2.89368290651975   -0.64529943504365
O           1.32408142621756   -1.20190752310935   -0.84296023836620
O           1.94326921628344   -3.56295490806036   -0.87903721553497
H           1.57596587679707   -4.38609480188806   -0.56942186045190
O          -0.76908497619202    1.64455235481647   -2.11447455428081
H          -1.21450629060395    1.93692720078883   -2.90976568424716
O           0.63661677103744    1.99664443617025    1.44786837573840
H           1.22753230863978    2.59363627418784    1.90719282686827
O          -1.58233514695480   -0.57523785744614   -0.52659357107855
H          -1.14479588087144   -0.02515224471233   -1.19792130143666
H          -1.26514703026013   -1.49472408229625   -0.69754110906500
O          -1.84213593449715    2.34006461671204    0.23690437897325
H          -1.21135319477183    2.08539110672168   -1.35400367760304
H          -2.23437265843835    1.46507002064265    0.31634761699545
H          -1.02347687581023    2.33178716921107    0.76274493292782
O           1.66659723814218    1.41979096995683   -0.82912089068509
H           1.72552669840953    0.44376607421887   -0.83275322392145
H           0.96412823989926    1.60834863053065   -1.47149261798858
H           1.07973011082726    1.80086433802181    0.55452361912237
N          -0.31758807338685   -0.49657365978838    1.78163844343019
H          -0.89489450477807   -0.65924808966817    2.59982374859448
H          -0.90222468678689   -0.48323071761040    0.88798707674443
H           0.18185014902086    0.41401519450182    1.84492888830325
H           0.36884365216960   -1.31855344638244    1.63633592784008
