    26
        -50.45634941  Gyration_radius:  2.66528438554 Dipole_moment: 5.734
 S          -0.67940293104317    1.48220168964984    2.16282592596270
O           0.26660648894652    0.79800700368223    3.01810988131597
O          -0.10349568840798    2.05733569057189    0.96929871289115
O          -1.84216212549464    0.64408675533010    1.84431268107263
O          -1.24557793286517    2.69419521119603    3.02903566161486
H          -1.25676577081128    2.32196261751193    3.90536920802240
O          -0.16736171663233   -2.31960473726512   -0.13674939291856
H          -0.32459737076282   -3.03212937560020    0.48401286951445
O           2.06796946527402    0.36597394027178   -1.54974737370369
H           3.00463845494210    0.55709532873823   -1.60316264869586
O          -0.34917880826718    1.64990071140127   -1.61522052367873
H          -0.27798456163353    2.04390987686146   -0.71885436698983
H           0.53837750213821    1.28526274176178   -1.77132652517524
O           1.31118250647124   -0.57367033580916    1.03087778193222
H           0.42522287664332   -1.66452529993895    0.35439088275970
H           1.55234521586805    0.08284071724503    0.36144761267440
H           0.97472433072420   -0.07915899993959    1.80953840640088
O           1.47074007542545   -2.15627833324882   -2.32446760202886
H           1.94929434970311   -0.55816481778873   -1.85609269936255
H           0.91771989340462   -2.37000082721312   -1.54967551086818
H           0.90758310537016   -2.22896043570062   -3.09647858767539
N          -1.84813636678109   -0.21784621036612   -0.57461232005192
H          -2.77696126084743   -0.33504242467807   -0.96227104305495
H          -1.90537969277476    0.16184289789611    0.43648192462240
H          -1.33369906080909   -1.11688447155459   -0.52405681500868
H          -1.27570094778441    0.50765108696677   -1.12298614957943
