    26
        -50.45592063  Gyration_radius:  2.62469274113 Dipole_moment: 4.130
 S           0.25488560219864   -2.65167129539240   -0.13055203951562
O           1.70091767518884   -2.45055066032499   -0.29487537921214
O          -0.11927126616794   -2.70281828849309    1.27221835310931
O          -0.50781302336677   -1.69176092179567   -0.88916895706439
O          -0.05758951379738   -4.08630196476687   -0.73725753165059
H           0.37787141977048   -4.67822121438085   -0.13033983512890
O           1.09162444903979    1.95362461675287   -1.21494606123167
H           1.47281761465760    2.42099328333578   -1.95843065903988
O          -2.43395606493998    1.34362041211843    0.19371774496533
H          -3.30020029559046    1.59329580105071    0.51570150170623
O          -0.52222038344174   -0.15736110985732    1.67801497854502
H          -0.49514722024927   -1.14441489737137    1.66334848097443
H          -1.25121950588278    0.08723229919607    1.08348458984968
O          -0.95769727257425    0.64796081309216   -2.03539256420313
H          -0.77518056912268   -0.27968639707554   -1.78584493695880
H          -1.67256421182128    0.90969371885987   -1.43355535778125
H           0.28462276934670    1.45776595800004   -1.58345837003678
O          -0.33744780910571    2.78849069184586    1.01863297988702
H           0.23822572969982    2.63566495378568    0.24916957457640
H          -1.80310854798183    2.04094963924580    0.48352059653916
H          -0.12456557713799    2.10975986904296    1.66661566348497
N           1.81568639658347   -0.01026182621998    0.47498987368424
H           1.87552822686047   -1.01395345000823    0.07873139951120
H           2.60652865799211    0.17738476135389    1.08204637556396
H           1.74344133969856    0.69818012681940   -0.28372300479842
H           0.89583139017888    0.00238508124241    1.01735260418166
