    26
        -50.45450920  Gyration_radius:  2.45201188293 Dipole_moment: 5.296
 S           1.43136252333238    0.64532503797621    1.37854288174524
O           1.94024727935956   -0.58691887969810    0.61190771953214
O           0.04119734054808    0.88331056471923    1.03493438785579
O           1.69903135301590    0.45004692941017    2.75729422807917
O           2.25891950176367    1.81869729694080    0.81032725606775
H           1.67856795882855    2.34355277771567    0.17904995164144
O          -1.25789797411791   -2.26164002755245   -0.36385300615566
H          -1.41830457560698   -3.19841093369085   -0.48424015620547
O          -0.52193627916744    1.22295834803320   -2.42974045494308
H          -0.96016530964831    1.43091031808863   -3.25568949891063
O           0.52016785325734    3.01333121204238   -0.66796914942874
H           0.27626644456715    2.43436664666463   -1.41802938592287
H          -0.17631551999074    2.88799161080612   -0.01495155779029
O          -2.09566928388837    0.37809280721663   -0.53419668912436
H          -1.45643577426897    0.61327756733541    0.16107278093629
H          -1.23050913832951    0.94795608561533   -1.77971258443218
H          -2.07992533222044   -0.59056880287504   -0.55660428912032
O           0.81207611429881   -1.01498308146039   -1.60594165311087
H           0.04229651578584   -1.52190648513445   -1.27312792718151
H           0.45511423006835   -0.19723981247172   -1.99822322551127
H           1.52888942698703   -0.71838875817219   -0.32156049295550
N          -0.28010077892904   -1.82172247306391    2.07781998842610
H          -0.67585462721746   -2.15137150019992    2.95051877197076
H          -0.92111779387379   -2.14465908695791    0.57150676852987
H          -0.31644789106087   -0.80721252661177    2.08857841742026
H           0.70654373650778   -2.05479484467711    2.08228690858954
