    26
        -50.44612511  Gyration_radius:  2.48611110958 Dipole_moment: 2.147
 S           0.55233832232367    0.15954355075298   -2.15902564147452
O           0.78005066359008    1.57509782406551   -2.30488067606752
O           1.79271764235970   -0.58655680682034   -1.89333440467192
O          -0.46771477141826   -0.19524301435142   -1.20025160632743
O           0.03473174836824   -0.36056258659999   -3.57163653554353
H           0.65287324877645    0.02826901626130   -4.18309716778352
O           1.25318271168425    0.32086806858577    1.81099609845904
H           2.08608981170695    0.59302542821705    2.19831082635027
O          -0.83185047733127   -2.70814657416704    0.65759424882807
H          -0.80721803305473   -3.45121647650413    1.26350997979811
O          -2.33747590583932    1.03442330222642    0.15672384708718
H          -3.18470273208957    0.79020242534412   -0.21868786789811
H          -1.65790690809643    0.60506438224110   -0.41434065727624
O           1.47227698416534   -1.71280423502727    0.26061054038795
H           1.62038549608250   -1.28033482721823   -0.71514433308367
H           1.40747911668941   -0.90984061903736    0.88969994685651
H           0.53454362129418   -2.14687061933079    0.28612775899605
O          -1.41198109928601   -0.60848405509569    2.11025022961486
H          -1.17792698165668   -1.92912896639053    1.17773592379161
H          -0.52241247311793   -0.25452659224354    2.24260692781831
H          -1.84735042820544    0.02353870849412    1.50279833572750
N           0.40381735409441    2.29025196944061    0.39038953978778
H          -0.60672262226037    2.29492464949175    0.48387348493591
H           0.73861712979572    3.22512069010275    0.58836644486608
H           0.92124398550092    1.11723941514742    1.23300674925828
H           0.60291458570913    2.08614592234392   -0.59220199239446
