    26
        -50.45592081  Gyration_radius:  2.62470012521 Dipole_moment: 4.123
 S          -1.93397778421972    1.55420948712208    0.97879848197667
O          -2.37037021710428    1.78144817055291   -0.38814318725138
O          -2.54561721257981    0.34463076317472    1.54537550532537
O          -0.49956051218227    1.54594493658580    1.12507678917756
O          -2.48780063988398    2.76849375418410    1.84039373466003
H          -3.41180589639107    2.79592956430174    1.60847293235371
O           1.27196419084666   -2.02390989588350    0.88018086677561
H           1.70606407853903   -2.56909563650559    1.53659464931110
O           2.23399476539303    0.93834459896691   -1.37602967779050
H           2.75696629738099    1.40594725920652   -2.02735772122815
O          -0.54819017935567    0.38815302447144   -1.63121100422599
H          -1.24387337067182    1.01609313149844   -1.31979571975405
H           0.29730220337572    0.81449482789577   -1.41186509949492
O           1.88822262772534    0.42716827366050    1.31759297276000
H           2.21342836629300    0.75513243975905    0.46419117282227
H           1.02897940914902    0.88108629513257    1.42611735742254
H           1.54740736356942   -1.06803726591213    1.08763183777073
O           1.68581160587779   -1.63973146537907   -1.84217204062831
H           2.23371357116769   -0.01219006478438   -1.63026584877411
H           1.58960728005456   -1.92336935817940   -0.91640695274910
H           0.80809837860858   -1.39683201604269   -2.15268963905642
N          -1.24735632143283   -1.39062457252448    0.17996952679009
H          -0.38084717154820   -1.75127062584964    0.62909714700439
H          -1.83181241829289   -2.14820696984997   -0.15718534964382
H          -1.80725228456368   -0.75268296293870    0.84880731383613
H          -0.95309611973290   -0.74112566269778   -0.61517806735780
