    26
        -50.46254247  Gyration_radius:  2.39820192554 Dipole_moment: 9.371
 S           1.52561727390026    1.06610960198284    0.48604931320215
O           1.71852293562430   -0.40260288986842    0.34377403913106
O           0.09794321614842    1.36230621373230    0.57988280377322
O           2.32532666398887    1.62401911854316    1.52207392662276
O           1.98049196771524    1.65822526519259   -0.90333979060144
H           1.26762150639246    1.43539865237324   -1.52997092183361
O          -0.02500971038082    0.92575336958779   -2.63119630565393
H          -0.11702890019463    1.58662252497835   -3.31890690177183
O          -1.83219191695347   -1.65476758008106    0.12263935029271
H          -2.43023782132405   -2.36023327785454    0.37215068171361
O           0.12380330623092    1.00503690415378    3.21967336519315
H          -0.07314104408325    1.33020715556963    2.32452752613551
H           1.05692987540930    1.21243192741394    3.33300607564955
O          -1.98374515531147    0.94811086155067   -0.94319343673142
H          -2.21951005758587    0.06192105704154   -0.63284558320600
H          -1.34747576453761    1.26749885830834   -0.26857362547243
H          -0.84560786331462    0.99931833664409   -2.05204309975476
O          -0.11068642778297   -1.40531211070627    2.03487355827947
H           0.67753821609431   -1.15627969904804    1.51694341886045
H          -0.21014552332159   -0.66319982107959    2.66566720335134
H          -1.23908658224533   -1.50326831523742    0.92566199299412
N           0.32475765070378   -1.49457300954499   -1.46507779478697
H           0.73483015853217   -2.34449241337137   -1.83510159123186
H           0.20319665938028   -0.77695026140676   -2.19313718530343
H          -0.58500115417861   -1.67951607941638   -0.97987674831219
H           0.98228846109872   -1.04176439944900   -0.69366026053627
