    26
        -50.44612508  Gyration_radius:  2.48607444072 Dipole_moment: 2.148
 S           0.29613284526613   -1.54845862958234   -1.58323638380612
O           0.19856345363503   -2.60486339994106   -0.56327466422453
O          -0.91135974290540   -1.41680676911773   -2.35881801083631
O           0.77694900392560   -0.31980885177542   -0.99606564394275
O           1.42842772400831   -2.03161556080691   -2.59236834391334
H           1.00730656925604   -2.74506019259940   -3.06232901171163
O          -1.46413341501269    0.05220218796004    1.67567158193045
H          -2.22085457082216   -0.33193581453667    2.12021972753515
O           2.38357958539181    0.26683386980827    1.64410132270312
H           2.77517940217876    0.36459242034651    2.51415387488699
O           0.27063230627267    2.23861616805441   -1.21402298432994
H           0.46565479548730    1.27209695972986   -1.20485244409808
H           1.00810202460003    2.64844775248554   -1.66851448051728
O           0.50696620371298    2.08580568468595    1.48645287511340
H          -0.26131377332620    1.54301017314172    1.70837199050313
H           1.75811653993967    1.03633204867439    1.52625730629037
H           0.40856221541772    2.28480110609366    0.53318618297768
O           0.56947249125310   -1.51183485383023    1.59968283580471
H           0.46256208099341   -2.03073659037654    0.66145436545982
H           1.37515575467009   -0.86830546905784    1.52663963666554
H          -0.24977399902094   -0.90272889484643    1.65036580277725
N          -2.17353506263183    0.51841202430393   -0.75279838884346
H          -1.75555024757296    0.22964180077848    0.69487999404089
H          -1.78965353912373   -0.22100239789032   -1.34663838725414
H          -3.15737168518727    0.61481249290286   -0.97195906757236
H          -1.70781696036170    1.37755274542657   -1.02655968568329
