    26
        -50.46254248  Gyration_radius:  2.3982063432 Dipole_moment: 9.371
 S          -0.50589385933814   -1.75637747465280   -0.59966411992524
O          -0.26405838833699   -0.71072031182587   -1.63053245750206
O          -0.66254697899304   -1.12333588795226    0.70781880212968
O          -1.55028671429925   -2.65113931708277   -0.96406335983336
O           0.85615707186165   -2.54738651115706   -0.51576559099642
H           1.47345212422175   -1.95835258743673   -0.04407962345493
O          -0.07307581929639    2.42960615084486    0.44945974501925
H          -0.29531899432707    3.36077895037585    0.48308889602542
O           2.56456023123752   -0.80523851594631    0.74530131203728
H           3.20540309951478   -1.29678736148527    1.26092121090736
O          -3.27200540920540   -0.77007793468900    0.30438459586242
H          -3.36952992380269   -1.49686770485005   -0.31919472776628
H          -2.40599878759064   -0.93794368749496    0.71386912581194
O           0.81889207975060    0.41868551958093    2.20858365037391
H           0.55871901477978    1.27583270145082    1.84137358876111
H           0.14518981841676   -0.19909521711032    1.85300945234591
H           1.95683367431290   -0.34760626940110    1.40519069239055
O          -1.94324409877447    1.24938548079383   -0.88920578642208
H          -0.86543335731972    1.97553293395221    0.01869996372984
H          -1.41819980984065    0.55700165064797   -1.33248908455075
H          -2.62300121452132    0.74025239439474   -0.40214010461672
N           1.56701402375623    0.94369616642191   -1.06750621925599
H           2.00312644210440    1.35861976072295   -1.88303364323478
H           2.24357877126203    0.42367315797382   -0.49160160373225
H           1.06677728160547    1.65775683344731   -0.48685494847077
H           0.78888972282494    0.21010709047835   -1.36556975562962
