    26
        -50.46254247  Gyration_radius:  2.39820761526 Dipole_moment: 9.371
 S          -0.88616537318231    1.00349141709023    1.38137637469019
O          -1.64241141312040   -0.09782569815815    0.72581945219173
O           0.28309810589910    1.33944529719946    0.57220582720228
O          -1.71636589227706    2.10624505748424    1.72609915980656
O          -0.30631477301443    0.35312965893652    2.69619742729927
H           0.42160925033502   -0.22586389891515    2.40398346034892
O           1.67641707272199   -1.32090082347695    1.79600876881450
H           2.37221084441356   -1.38049685348232    2.45212244526271
O           0.56117178941366   -0.93493788780112   -2.21840755097100
H           0.56998847493711   -1.19657568567456   -3.13987488679380
O          -1.13563321005069    3.04878577307045   -0.89814062446734
H          -1.79671977694477    3.22805988562686   -0.22184368102589
H          -0.41871365200715    2.61501938373626   -0.40445707437855
O          -1.51622664234894    0.56435739859569   -1.87357896137666
H          -0.19175285600897   -0.26776819435969   -2.13156005389450
H          -1.75357208003521    0.31175902640729   -0.96173953414488
H          -1.39404231231669    1.53397148334228   -1.81476690899060
O           2.37422466391291    0.03417841608350   -0.29287092499074
H           1.72620385460165    0.71724234383739   -0.01820428288515
H           2.05824889274174   -0.80478644892301    1.02009497754556
H           1.99823126837280   -0.32091448336959   -1.11126787591786
N          -0.24890297523036   -2.10242696416086    0.05748463297433
H           0.12492434714685   -1.82516113076552   -0.88096032868254
H           0.51419391850554   -2.15234357911669    0.74670554845579
H          -0.89673211531403   -1.25918189552669    0.37640742320456
H          -0.77696941115082   -2.96650159768002    0.01316719072196
