    26
        -50.45634928  Gyration_radius:  2.66551914599 Dipole_moment: 5.732
 S          -1.99010329531117    1.01167039251807    1.53404657529890
O          -3.02124218978728    0.43139388723543    0.70053238457805
O          -1.30575238361301    0.00066932276972    2.34979796735709
O          -1.04493239401644    1.84482495579767    0.82724215044572
O          -2.75140944323402    1.95636698544221    2.56722389195957
H          -3.56061133151501    1.47627989698018    2.71393893743695
O           0.33834733355009   -2.26433884261665   -0.42649902753897
H          -0.16390857748755   -3.06898455323211   -0.29213822138614
O           0.89295445694712    0.99016196087863   -2.24446905369851
H           0.67450954361842    1.37969930573546   -3.09140602538525
O           1.52966390046821    1.73635940477810    0.31142193147058
H           0.62298887728437    2.01613215069989    0.56321721567529
H           1.46114394442169    1.58900510357432   -0.64706567153207
O          -1.30952549893422   -0.41606301394762   -1.10847374361315
H          -1.99772000443257   -0.11021807481465   -0.47845202263812
H          -0.78023043349222    0.35873527122837   -1.34671991654629
H          -0.34101968900368   -1.56962628117567   -0.70493076348677
O           1.97482564328530   -1.47886710822089   -2.47653220863865
H           2.87494975146492   -1.56658863249383   -2.15947737792744
H           1.39876187107038   -1.90237615268142   -1.81276380169516
H           1.28305705873563    0.10956524974168   -2.42938860081117
N           1.07383676503481   -0.52299810779159    1.53851358786184
H           1.39181545676879    0.37138067926164    1.03480613226102
H           0.94549023821061   -1.29286117537051    0.85563689654776
H           1.70983564948485   -0.78107422791600    2.28392361894985
H           0.09427474049608   -0.29824838636423    1.93801515505804
