    26
        -50.45634923  Gyration_radius:  2.66550901549 Dipole_moment: 5.736
 S           1.47131174846152    2.12875734193695    0.80054626271404
O           1.02477616993915    1.44509352534669    2.02093417149885
O           2.69763394331706    1.56438701924002    0.27859460674797
O           0.40099434695124    2.23508809070460   -0.16390096788293
O           1.83632616286646    3.61411321997309    1.24738267387483
H           2.72962525246121    3.51141062766306    1.56089793937879
O           0.35251801989742   -2.19816731868936    0.67982680161115
H           1.04516441798507   -2.66654436827391    1.14737050847211
O          -0.91825099515338   -0.44349329840142   -2.40242046913823
H          -0.73882992663393   -0.43443194897559   -3.34289268919721
O          -1.97867585097952    1.15688968878557   -0.45064681172378
H          -1.78052469384197    0.61841056189008   -1.23545261748998
H          -1.21531317994531    1.77191895069953   -0.39892467453275
O          -1.23353705505274   -2.94570841290585   -1.42317572432758
H          -0.62824538105680   -2.83273661026141   -0.66643771985459
H          -2.09841487212954   -3.14265211117554   -1.06043566581965
H          -1.02536717958733   -1.38328852733635   -2.14317756440429
O           1.47236637213988   -0.46927293571137   -0.85391775346961
H           0.83285559644001   -1.54052466522102    0.08096151515830
H           0.77142395053193   -0.08015893401924   -1.39667073597534
H           1.98359267363650    0.27528988949475   -0.46862750061128
N          -1.02542332780327   -0.05738215090691    1.65531405623728
H          -0.62218787492204   -0.97746950377826    1.39752137247582
H          -1.53253305406833    0.37515235081120    0.81236314020599
H          -1.63085726633812   -0.12355661524902    2.46512335899897
H          -0.19042801711879    0.59887614437078    1.85984450705446
