    26
        -50.45634921  Gyration_radius:  2.66549965438 Dipole_moment: 5.735
 S          -1.95301352740409    1.59899440561548    0.98249037076197
O          -2.77691773052590    1.43413379977033   -0.19592850323555
O          -1.93895561345269    0.39271657000372    1.81947640142185
O          -0.61351397189705    2.07063851421235    0.71727942629358
O          -2.67001044489788    2.72204779009016    1.85657988795085
H          -3.59031933052812    2.54807048165966    1.68475684885002
O          -0.28102614011482   -2.22893985264289   -0.61188150818564
H          -1.02882936984232   -2.81222701420196   -0.74727204601450
O           1.85464824622482    0.67599073338769   -1.70804144833249
H           2.06565293429453    1.13896080995077   -2.51916214160407
O           1.80861130891018    1.09040099679961    0.99772433248989
H           1.00920311908127    1.66025843225064    0.99831028946870
H           2.01948814416122    1.00036254152877    0.05298243289445
O          -0.92688200842762    0.09301795031253   -1.49961823589718
H          -0.13074977873355    0.64211104992209   -1.45618796777878
H          -0.56966672873092   -1.33481681336152   -0.98463766805011
H          -1.64956717620572    0.60199738528761   -1.07215717209289
O           2.10224874483022   -2.00824672382740   -1.94214954454862
H           2.76805315359246   -2.41277174303623   -1.38403428564804
H           1.23550887589321   -2.22232251217871   -1.54884659367450
H           1.98062570670629   -0.28012914095148   -1.88617087467487
N           0.27584654787382   -0.90203159646833    1.70396439155762
H           0.14307478389846   -1.56157194529252    0.91471078212047
H          -0.65462805003423   -0.36210319584407    1.81470031919458
H           0.51036641685310   -1.38397711331610    2.56388604821677
H           1.01075191848109   -0.16056379966861    1.44922645852473
