    26
        -50.46126934  Gyration_radius:  2.53163798125 Dipole_moment: 6.045
 S          -1.97973690793472   -1.02172722536354    0.53626308955279
O          -1.38994807844540   -2.31034394159367    0.24925799007719
O          -1.25902431758453   -0.30361038391504    1.58150626231481
O          -2.19876322631233   -0.19597797305087   -0.64237794216028
O          -3.43094087839939   -1.31169378658252    1.11865244141897
H          -3.27317192539404   -2.00364416306901    1.75335949929886
O           2.54552135800558    1.43145769821366    1.61129348112650
H           3.47871336211879    1.25361958975654    1.73243299022051
O           1.43839419628284   -0.61103479028046   -1.55668072581254
H           2.13257656133018   -0.99285229396283   -2.09520909631254
O          -1.29485922223136    2.01291650772642    0.34974848044837
H          -1.78997189377416    1.37870925432050   -0.21589881415663
H          -1.21305639430680    1.48484307579014    1.16513315880707
O           1.32433492249629   -0.85775805375046    1.29779920570758
H           1.36769757636077   -1.01918708084750    0.34517322182555
H           2.08748561728350    0.54663871059946    1.65636033068927
H           0.37269652605681   -0.74995607140342    1.50220637149692
O          -0.77012949561271   -1.76320474518225   -2.22330180394041
H          -0.90484870506889   -2.29288849117845   -1.41005675398421
H          -1.42603744077063   -1.05925786060847   -2.09139925672516
H           0.58489772360651   -1.05792284661340   -1.85299679867234
N           1.13141223866581    1.90392858879164   -0.58328541750636
H           1.36261680875694    2.67493426155152   -1.19954484740748
H           1.22821932928464    0.98780746810562   -1.06977536117132
H           1.76333272957093    1.87816115749173    0.25900386749737
H           0.11258952599892    1.99804340506589   -0.21766354263044
