    26
        -50.46126929  Gyration_radius:  2.53162323395 Dipole_moment: 6.043
 S          -1.50176488047131    1.65628062961829    0.50179804604403
O          -1.02251776451980    1.67409835042976    1.86589927319464
O          -0.44345918291981    1.94248880421518   -0.46035400298428
O          -2.24742589262566    0.45583679542668    0.15261966523218
O          -2.54732010215348    2.84821042304132    0.37752662819056
H          -2.09711764474098    3.57368264392565    0.79887602120455
O           0.66495064980890   -1.64178602660804    1.31448558391848
H           1.08143849905740   -2.22551699917862    1.94968797964589
O           2.90934454497378   -0.27971865534501   -1.60746035970467
H           3.81219324903840   -0.49839857740356   -1.37449563132575
O          -1.12680975238406    0.04609911550952   -2.14028202479065
H          -1.78141510749890    0.02967287068720   -1.40637252603208
H          -0.67597807889736    0.88850495866020   -1.94671924033639
O           1.79580407405795    0.85348872026633    0.46754298987301
H           2.56279449562734    0.28969938924295   -0.86553732693315
H           1.01880880191804    1.37407163036736    0.17726806671972
H           1.43613601226129    0.11301375386799    0.97526242944948
O          -1.55057778203107   -0.83143857659194    2.35579158882024
H          -2.12374152146311   -0.72364603692323    1.57930901225066
H          -0.20764199325075   -1.35984823772790    1.73284745240074
H          -1.29555377263477    0.09938607138640    2.52495297859974
N           0.66871829604419   -1.68496212035709   -1.39941940110099
H           1.60077802794433   -1.24240719042785   -1.61154909370643
H          -0.09899217499993   -0.99834022797675   -1.74537891671198
H           0.57226220454342   -2.58666739070454   -1.85253692164624
H           0.59708680530917   -1.77180409741073   -0.36376225026161
