    26
        -50.47104610  Gyration_radius:  2.54669651985 Dipole_moment: 4.091
 S           0.88015308261684    0.52941079970914   -0.40126498304624
O           0.42750882817939    1.81829617568795    0.11802317997382
O           2.41645171215879    0.57633189189985   -0.57450508856646
O           0.58685031555380   -0.53878325219805    0.57454549273295
O           0.28424020562237    0.23342287118588   -1.68652908593180
O          -1.96199364643883    1.68964297314389   -0.97922422582860
H          -1.14075070840468    1.97256114747407   -0.52084405242966
H          -1.64349093172336    1.41162186627736   -1.84522000338004
O           1.53870715517673    2.47501853201592    2.42893114047904
H           1.04309145804069    2.29191669267769    1.60109499117870
H           1.94224860575082    3.33659380358743    2.31063539296569
O          -2.24477394455448   -2.62938554205332   -1.35541678456653
H          -1.25948839928680   -2.69638713821698   -1.47349519967801
H          -2.60213870537803   -2.47833038203789   -2.23201862842081
O           0.36510696495460   -2.40097027501571   -1.56977261374780
H           0.75806749697407   -2.44863719433297   -0.69350084480279
H           0.38583663668158   -1.44486180095068   -1.79057942116730
O           2.84122617639064    0.18709176577698    1.92701653544778
H           2.05667998645557   -0.37505209530953    1.86039920033940
H           2.78501751265795    0.45995436789485    0.35198407822124
H           2.51612828959497    1.03011626133569    2.31026205096156
N          -2.02014437552038   -0.60477135350694    0.34583503679711
H          -2.24200458545609   -1.41509320761048   -0.29837698306173
H          -2.17071883436613    0.31476855001402   -0.16304710325672
H          -2.56330908150364   -0.65149146257681    1.20157034962372
H          -0.97850119416599   -0.64298400487239    0.55349756917048
