    26
        -50.44529037  Gyration_radius:  2.4868294466 Dipole_moment: 3.277
 S           0.55209717641294    1.86644229573198    1.20904001923233
O           1.96687100997941    1.69952640581022    0.83137522655741
O          -0.29024589251514    1.32413424913453    0.15455566146739
O           0.23545251380862    1.39082316071887    2.52175502434428
O           0.30479677034522    3.43614370211339    1.21295616814603
H           0.53228540205097    3.69747505999111    0.32541818535729
O           0.32904642088403    0.47012217960245   -2.79971766340284
H           0.61972393721310    0.14029111293742   -3.65220931454267
O           0.92986666441379   -2.03421844761000    0.08050129235305
H           1.55963264438946   -2.65466957877959    0.44941364426728
O          -2.51987932325754   -0.03559250141336    0.08643209493348
H          -3.20617021830776    0.55634460306784   -0.22438175806161
H          -1.70211380051389    0.51327065218794    0.16167566585440
O          -1.13072849150163   -1.44050016127642   -1.77354399463488
H          -1.74900500354702   -1.01183719136610   -1.14771750779032
H          -0.33514077565720   -0.19243888315125   -2.45414083509634
H          -0.46912605311706   -1.86891940941938   -1.21365180300812
O           2.03337009196548    0.03105646182009   -0.95877068497411
H           1.61396255036912   -0.79817853844914   -0.52991192949529
H           1.36299065798481    0.32489257378385   -1.68513300034731
H           2.03581858527045    0.79123974944091   -0.18523426592187
N          -0.57744207724134   -1.24475696694197    1.99995066392439
H          -0.25548758568088   -0.31186661905284    2.27173254083963
H          -0.65912677028995   -1.80398383750223    2.83980318177499
H          -1.50707562245104   -1.12554662894809    1.61032374441790
H           0.32562718898988   -1.71925344242292    0.86947965379815
