    26
        -50.44529056  Gyration_radius:  2.48716141799 Dipole_moment: 3.284
 S          -0.35353783007546    1.72913428374959   -1.46353089158651
O          -0.46665004484271    0.29457296150014   -1.25145810386981
O          -1.15040702967439    2.43299931814065   -0.44283182467211
O           0.99102158945500    2.20456380399945   -1.58737999140439
O          -1.08158324470881    2.03312196376921   -2.84278315958739
H          -1.96113193653832    1.69249880381994   -2.70773498886070
O          -2.42674285012348   -1.42457548205854    0.49331247757014
H          -2.99827822207626   -1.86638930362775    1.12432495097727
O           0.73653958320796    0.09280795778900    2.11287305586987
H           1.06058742175001    0.58688832381996    2.86687443745243
O           1.17648116148621   -1.73095005804793   -1.40438959665095
H           0.58370697857872   -0.94085770434447   -1.40000273675568
H           0.93313628378137   -2.23789683928614   -2.18017322894030
O          -0.03084652893177   -2.37065113608931    0.93937064495081
H           0.31617969769772   -1.67440605982749    1.51345712631862
H          -1.53471899585252   -1.87075492803714    0.56251486445729
H           0.46495119026032   -2.27448463532796    0.10106642298807
O          -1.59675345900740    0.82632614652180    1.34880022161835
H          -1.43812826599004    1.55491844173959    0.56008852210748
H          -1.98910832235935   -0.02365265048539    0.91663588598389
H          -0.66256481187203    0.55572902054737    1.66646717787673
N           2.36523754006078    0.50374216177896    0.17371800312642
H           1.40406763606231    0.26958476115345    1.33234034744440
H           1.92664154358651    1.18592610943782   -0.45077321315288
H           3.30830794143985    0.81760720231481    0.36580302865037
H           2.42359295470019   -0.36580246295061   -0.34658942190924
