    26
        -50.44529011  Gyration_radius:  2.48647502126 Dipole_moment: 3.280
 S           1.83699534654000    0.92206153060260    1.01115432103363
O           0.42947726246971    0.58452347890794    1.15471272103588
O           2.60476151393931   -0.30841731981097    0.74986586480465
O           2.09867805911763    1.98391007939522    0.08734905533662
O           2.32340708063350    1.42019423234895    2.43951008605331
H           2.13657897903948    0.67795335083663    3.00690055730581
O          -0.13969632932106   -0.98428517445766   -2.00529541958549
H           0.25295550990407   -1.25952881575688   -2.83456093585216
O          -1.04510066880163   -2.15224189703419    1.56307323392381
H          -1.42489253412793   -3.03276934953525    1.58413617675582
O          -1.81678865255936    1.69823687260026    0.42126742125860
H          -0.94470388395387    1.33751825604721    0.71287251299145
H          -2.23425888312913    2.04687171851499    1.21003408227072
O           0.99633923220898   -2.01486792304821    0.04653349807003
H           0.24354284997721   -2.04455869255366    0.75074710037712
H           0.56377616469070   -1.60821130842502   -0.78711724193079
H           1.73059007115471   -1.28952630194703    0.37883297845030
O          -2.38193116731657   -0.86264763701516   -0.27644092703855
H          -1.78119081321017   -0.97810382065308   -1.02517174204392
H          -1.62979469048322   -1.60910307459599    0.96077744623418
H          -2.32104510322280    0.08756327702612   -0.05058102329904
N           0.11120606670393    1.56343995279768   -1.84987678073130
H           0.26110106508320    2.10686291260107   -2.69069287835084
H           0.88658422577738    1.75266863553528   -1.20898475076735
H          -0.72753288361170    1.91132980207517   -1.39629403199029
H          -0.02905784750929    0.05112723550103   -1.95275130431202
