    26
        -50.44300233  Gyration_radius:  2.54142254916 Dipole_moment: 2.810
 S           0.09114125994000    1.52786066423070    1.80193564190558
O           1.18788418397341    0.60371008979569    1.57821618566681
O          -0.28877216595870    2.18145985141877    0.53310507457762
O          -1.03513826744472    0.96791199635800    2.49204315777568
O           0.67241925749966    2.69506246911349    2.70186014092871
H           1.48902686650730    2.91284012369461    2.26280403772786
O          -1.51969747815928   -1.58962897861396   -0.49345670231359
H          -2.38886394719318   -1.99049984105086   -0.44925286038589
O           0.38781521051370    1.12243573097789   -2.69985113649013
H           0.58017568132864    2.05233584153774   -2.83117966300522
O           0.92939167467012   -2.20124694758738   -1.66579444884193
H           0.03917710989522   -2.09200345130567   -1.29434294624387
H           0.85346444341096   -2.04048630212855   -2.60842897604083
O          -1.55966005771822    0.90108389226322   -1.11608535706097
H          -0.84399699384413    0.97995665638136   -1.86853650328500
H          -1.57326517812733   -0.08007169019524   -0.83997746097335
H          -1.08383226315413    1.47478272821043   -0.32265994310510
O           2.00664761957959    0.20352787233068   -0.91825286707182
H           1.84794235912798   -0.75009497717212   -1.04689614491171
H           1.07880372184483    0.79044245228637   -2.04054282811071
H           1.74516732416183    0.39489504057472    0.00733532020205
N          -0.49958530716101   -1.66232464358115    1.84634807663467
H          -1.11346978977211   -1.65640533458238    0.46818799864426
H           0.50420483648063   -1.55446978371976    1.75036264263542
H          -0.82551997022220   -0.77996573375442    2.25050606865620
H          -0.68146012017536   -2.41110770547493    2.50255349249754
