    26
        -50.44606545  Gyration_radius:  2.47058271872 Dipole_moment: 4.354
 S          -0.91329303380223   -0.03181832116687    1.83510540500854
O          -0.86702928539380    1.42349863769929    1.59301035638272
O          -2.15343610260109   -0.47621797344949    2.38525854185687
O          -0.41246308100613   -0.75863132485686    0.69284227302785
O           0.21903586567519   -0.27122393278050    2.97119217904031
H          -0.24087511005138   -0.18405879211451    3.80145617639226
O          -0.47119868863497    0.82563088055887   -2.04617879260341
H          -0.73655285722888    1.54187988648786   -2.62660903987570
O           2.36472888034075   -0.09457171056141    1.09597375511948
H           1.81759502261540   -0.22185972208332    1.88297171832245
O           1.37794941997208   -1.14182325406068   -2.74025550558077
H           0.63367888400760   -0.55035961727636   -2.54499903013622
H           2.10702565750624   -0.59023128983538   -3.02840616765935
O           1.65868398552505   -2.20765043641605   -0.22714538797201
H           0.76823539094974   -1.98588086473309    0.09140945704972
H           1.63713453072955   -2.01296564869310   -1.18187213221027
H           2.25097439028378   -0.94602365468552    0.57096274714516
O           0.97489445917789    1.63409576665056   -0.02815209647436
H           1.64836053662923    0.89409766343835    0.38818442991120
H           0.52462116081497    1.25522647292507   -0.84437443892221
H           0.19142286635636    1.64601916212909    0.69161742365152
N          -2.61071190609518    0.46372651770292   -0.53251078015402
H          -2.49525047938559   -0.47034282611579   -0.15571200611349
H          -2.40075924834624    1.08844327096903    0.24014616043025
H          -1.28642207787501    0.58715280433531   -1.50459917969406
H          -3.58634919017158    0.58388830593293   -0.77931606595124
