    26
        -50.45437147  Gyration_radius:  2.50782680721 Dipole_moment: 3.489
 S          -2.10916119042269    0.67824812971007    0.34324865738473
O          -2.13392256340169    0.76231125482435    1.80138186344403
O          -0.99054363575855    1.43760235749840   -0.20452378548020
O          -2.16283336668797   -0.67006859792140   -0.16588603916406
O          -3.43229512455715    1.40317134864966   -0.14033240869221
H          -3.51978520417491    2.11224678335008    0.48911293713935
O           1.56153345628130   -1.54333231279558   -1.30793319886795
H           1.81302361832190   -2.26384932121715   -1.88676814583868
O           0.10951111579407   -0.04950138120874    2.56243661486641
H          -0.85346123858285    0.28862128110821    2.41715333667070
O           3.09550574600719    0.35665741380546   -0.14308078546981
H           3.71682646527401   -0.10651191344697    0.42082225399718
H           2.58818408452496   -0.32570555299418   -0.62507489342717
O           1.22168021117977    1.70622167271756    1.20741370337554
H           0.45062974699895    1.78396569503865    0.60226991713657
H           0.69249343407820    0.71625370080349    2.07615469329712
H           1.95658420834259    1.32250180435326    0.67581426129603
O          -0.04884800469686   -1.88804672595262    0.85446640598604
H           0.60559009134901   -1.83277869087043    0.12957335550657
H           0.14527575798721   -0.88818404857494    1.94210103806349
H          -0.89950365299719   -1.58898004178866    0.46339411948463
N          -0.41940619634817   -0.23952398951179   -2.39375263687743
H          -1.23969605247094   -0.82837190100052   -2.29856045599703
H          -0.42573548352851    0.17119587552516   -3.31900384957697
H          -0.55269547587864    0.50988293476804   -1.71294507153154
H           0.83104926338428   -1.02402575487814   -1.78748186673318
