    26
        -50.46811973  Gyration_radius:  2.53463968356 Dipole_moment: 5.660
 S           0.58716535476878   -0.12294054799387   -0.67589371807645
O           0.96158720154719    0.79376071425385   -1.84246648581441
O          -0.30687499266982   -1.17764210634864   -1.15519253551470
O           1.80770376888925   -0.67560424745265   -0.12366067349730
O          -0.11020528218733    0.70025498677784    0.33528163144093
O          -2.63044106304883   -0.26970070432408   -1.99602018232084
H          -1.81147549183236   -0.66372964050550   -1.62158734041583
H          -2.88097451586975   -0.83163602902336   -2.73141766165363
O           2.68859153240430   -0.26271980726683    2.30796491344377
H           2.46643842522696   -0.30563503808189    1.34630016049414
H           3.52238132010033   -0.72441006641901    2.40779548881725
O           0.22879842117856   -2.90314317261738    0.72144939328439
H           1.16700525117281   -3.02719021333003    0.55329193842865
H          -0.07872537725666   -2.36814483872776   -0.05025175540032
O          -1.00613697510352    3.16573616076504   -0.17577927503276
H          -0.22465406950847    3.71797108067251   -0.11617266367171
H          -0.73105552412376    2.27289537550977    0.11534885676035
O          -1.18632962241970    1.91341474531659   -2.55426008350955
H          -1.85736070934080    1.20846861265792   -2.41640093158324
H          -1.29562905328369    2.53096592094376   -1.80145489199397
H           0.10505592860731    1.24991191933830   -2.19605343910131
N           0.09745126658262   -0.85126751472783    2.37644397186407
H           1.07951576401960   -0.66263726017393    2.67403105878547
H           0.07589864110262   -1.78257763811458    1.86710667844837
H          -0.56633749787941   -0.79905296305771    3.14116118053821
H          -0.10139271099723   -0.12534772807963    1.61043635526831
