    26
        -50.44612505  Gyration_radius:  2.48583843515 Dipole_moment: 2.147
 S          -1.84472663372014   -0.50864285860815   -1.15166838972675
O          -0.59724023210028    0.21894640031202   -1.13519975828069
O          -1.71176323457695   -1.93480989902484   -1.31083552090866
O          -2.66965761088708   -0.14577504615598    0.01174105876088
O          -2.64644910542460    0.01294093341238   -2.42409447386637
H          -3.37621661688461   -0.59634452734706   -2.48248716576404
O           0.27219149395101    2.88114135137600    0.29718941933317
H           0.48423608671814    3.63278857914454    0.85393217758816
O           0.55121884768008   -0.51703881277369    2.09241977937685
H           0.35631818109557   -0.98977833347475    2.90259439193997
O           1.91517957662755   -0.27211421988245   -1.67823687871631
H           0.95145017269986   -0.11743605509988   -1.53803206123666
H           2.13477156788615    0.17871982804550   -2.49489363797468
O          -1.24148003048031    1.21131223703572    1.47126480649519
H          -0.72975216731279    1.90626413614042    0.90254183420267
H          -1.91143707079111    0.66976912894910    0.82430054951069
H          -0.53584064694542    0.52360091646190    1.74334334245295
O           2.24876969604117    1.18828280382901    0.58664696716943
H           1.85831592326152    0.59818173673448    1.24502880225372
H           2.27423648967640    0.66338910375173   -0.23907596601354
H           1.07720481397907    2.29033197738155    0.29963672028577
N           0.63596410060668   -2.26219176482496    0.20449420337367
H           0.57548411273701   -1.22661193502405    1.33432299562699
H           1.36227585234688   -1.95651029056015   -0.43500034737700
H           0.81184310738506   -3.23256327328391    0.43400962564214
H          -0.24489667358062   -2.21585212655712   -0.31394245414828
