    26
        -50.44612491  Gyration_radius:  2.48561599663 Dipole_moment: 2.146
 S          -0.51083797453871    2.14954498266104   -0.32317488488871
O          -0.85555407131587    0.77344943014220   -0.59431604299959
O          -0.79771693955689    2.59227148280658    1.01789616243295
O           0.87922785580799    2.42136822760014   -0.72208992291535
O          -1.41445915762176    3.03314043987106   -1.29097423551386
H          -1.27223503881780    3.91792067767431   -0.96829003935665
O           0.38319740929304   -1.36409825061932   -2.54031568568718
H           0.88751548827205   -1.98208864492430   -3.07287351088373
O           1.75436960907684   -0.89877274154314    1.03020540121732
H           2.54999369803509   -0.78808279551665    1.55228271854580
O          -2.22983431661450   -1.12584547850899    0.56825846635863
H          -3.04000578819665   -1.25099801550821    0.07194057745050
H          -1.76936521295268   -0.36541840555901    0.14158231721787
O          -0.10771041692308   -2.59201987471476   -0.28069754944838
H          -0.92921006648611   -2.19094702710453    0.06893051284193
H           0.08113103443194   -1.86688091544559   -1.73205868099283
H           0.60124810336548   -2.21938517179720    0.26035669479457
O           1.87611771872469    0.24735554156240   -1.26314301495176
H           1.21854671980383   -0.29613973885457   -1.84698839519887
H           1.45087659223378    1.22168573500642   -1.09081956997425
H           1.85351214505929   -0.20829139258347   -0.34846522659593
N          -0.16780956935220    0.19297175291362    2.34572490035709
H          -0.36265474623525    1.10615244021687    1.92749311922546
H          -0.07450328804740    0.32164266904160    3.34571472809308
H          -0.98899017348884   -0.37997209836005    2.18042160925973
H           0.98515038603158   -0.44856283846391    1.56339957161201
