    26
        -50.44612491  Gyration_radius:  2.48598090472 Dipole_moment: 2.141
 S           1.55355674694120   -0.95747131428267    1.28839384321577
O           0.37476716500200   -0.12468826019147    1.23672483043942
O           1.31544449890846   -2.35882072804370    1.05125090103001
O           2.61030291335481   -0.41027972038912    0.42273928420858
O           2.11494377860908   -0.84173938680852    2.77349928110650
H           2.78465329219281   -1.51836326472463    2.80260242183579
O          -0.04744678133361    2.87949957254985    0.40318222882730
H          -0.10252738794500    3.76085273587625    0.02899796154069
O          -0.15890338967939    0.05642287659627   -2.21737132083265
H           0.16377984191275   -0.22654743029977   -3.07388498189521
O          -2.22003912901397   -0.46245005837962    1.19098309747225
H          -2.56787203819194   -0.19569668158277    2.04317894069356
H          -1.24012275563397   -0.38145439368559    1.26476871361077
O           1.57121828909798    1.39336975110462   -0.87293656402379
H           0.89548655155651    0.86626202645105   -1.42989202611491
H           0.99741727927891    1.98070076368796   -0.24495764664049
H           2.07112895139953    0.64793044862098   -0.27724187244678
O          -2.02007213843546    1.52030532243799   -0.65288079635337
H          -2.23692068812345    0.81934438980578   -0.00502530639177
H          -0.86817684227174    2.39360735260877    0.10704684357087
H          -1.54147587786604    1.06681144265855   -1.35961926469705
N          -0.71031843448088   -2.07105247258155   -0.88023538552795
H          -0.37139346290553   -0.80699706447076   -1.68095379786948
H          -0.89290085005536   -2.93503724887677   -1.37564055215818
H           0.05413667355477   -2.24098081713120   -0.22183866728008
H          -1.52866620586465   -1.85352783097564   -0.32089014531634
