    26
        -50.44612500  Gyration_radius:  2.48581836107 Dipole_moment: 2.139
 S          -0.02963158998776   -2.18543867427833    0.45933249904729
O          -1.37170383096194   -2.36936545952637    0.95106021697491
O           0.11030487969850   -1.16755243326586   -0.55563779627676
O           0.94360786159689   -1.97195471239176    1.54225282379987
O           0.38959284406199   -3.55869664236717   -0.22804065005662
H           0.13491805744413   -4.20936211617050    0.41917713569781
O          -0.08912162287753    1.73799095080018    1.38505893124213
H          -0.19856098974944    2.07837585886239    2.27384081867518
O           2.49019957559415    0.74942850706911   -1.30210880273800
H           3.21836445558357    1.36753867952621   -1.38920120115699
O          -1.46822385168004    0.25429606907929   -2.08382193133237
H          -0.91106339169023   -0.34074150031152   -1.52906235395928
H          -1.38660927510981   -0.07410088221398   -2.98042545919607
O           1.96342782993848    0.21870031287760    1.12660205777563
H           1.15662135138815    0.83383351862534    1.25085227468792
H           1.57830426472339   -0.77190173567947    1.30301723010581
H           2.20757019098960    0.29966825663238    0.12550720245482
O           0.30517016973668    2.18931830809631   -1.38895027976454
H           0.12869519647722    2.26914652958810   -0.44202563712257
H           1.65420179381495    1.27129678177143   -1.46344996271640
H          -0.39386076161806    1.59308083724471   -1.72646095885533
N          -2.17380302534403    0.32595729413610    0.85773031707197
H          -3.02790488506048    0.48957429552568    1.37637044007312
H          -0.92986752125280    1.16285564838458    1.18261273423271
H          -1.92597037159630   -0.66114829083888    0.96243941628802
H          -2.37465737412063    0.46920059881515   -0.12666904495272
