    26
        -50.46365344  Gyration_radius:  2.41773050739 Dipole_moment: 9.106
 S          -0.86955888911715    1.23619460503545    1.28568902410986
O          -1.17196622661922    0.96233778353002   -0.11868516128878
O           0.49340622759844    0.72644970673696    1.60154782330048
O          -1.05364160616879    2.58725764321156    1.68934848920810
O          -1.83695676893625    0.30742174609038    2.11096272588009
H          -1.72110296511109   -0.58450866076075    1.73538529300538
O          -1.49883052092473   -2.16626038632687    0.95871076230600
H          -2.26035314572687   -2.70233177226089    1.18495035966782
O           1.24174673694218   -0.93728427041430   -2.02105153540613
H           1.93280919224144   -1.06753425835709   -2.67109421780221
O           1.51288654779656    2.90586009219153    0.42294059804911
H           1.31058596558849    2.13549717449022    0.97927223156886
H           0.82093663737528    3.53577673274297    0.64504684271417
O          -1.55417112494214   -1.26225282396570   -1.46342691619668
H          -1.57672593343967   -0.35141503690583   -1.09861747341871
H          -0.70110809649183   -1.32021355870515   -1.91450818635496
H          -1.61390132668330   -1.89801669912277   -0.00269517781313
O           0.75266141103356    1.58017749892140   -1.81090112632189
H          -0.08708411907060    1.46863780464431   -1.31887345503683
H           1.28428545758140    2.13016190351120   -1.20360695275259
H           1.08668671998885    0.06233370558141   -1.97946576456284
N           1.12345006459145   -1.50173923840889    0.59251242095546
H           1.24739468279924   -1.36449617895249   -0.44042087367411
H           1.95620431742546   -1.88991870532577    1.02093163744323
H           0.88724706692047   -0.51128371234731    1.03387961454267
H           0.29509970535193   -2.08085111483205    0.78216903787849
