    26
        -50.45450931  Gyration_radius:  2.45201071295 Dipole_moment: 5.291
 S           0.38597439314737    1.59904476494817    1.28749197457188
O           1.21100867566622    0.36801890296053    1.69931193535280
O          -0.53976993304453    1.22502399481882    0.23385000121744
O          -0.20098009328980    2.14907530769227    2.45533010703527
O           1.42214121154882    2.56654009552842    0.67515859210648
H           1.32962779076488    2.54314541660423   -0.32574857384482
O          -0.87794982625012   -2.43468005873561    0.36618628527260
H          -0.96333673740096   -3.32157441465917    0.71818588740402
O           1.01483915680749   -0.24778060627967   -2.56562270888591
H           1.14193926299519   -0.58303428751857   -3.45383931259752
O           0.89527960628595    2.36997240665544   -1.83869969827137
H          -0.05396733601158    2.35840057678967   -1.67741827872441
H           1.11397285050140    1.46811132526882   -2.14870540339673
O          -1.38868992674049   -0.55423783960250   -1.60956496580357
H          -1.39003266488126   -1.37051567914516   -1.08733589530583
H          -1.26323752591028    0.15206000387103   -0.95178787297615
H           0.05351251468721   -0.39097353552512   -2.33009630229665
O           1.56193506566616   -1.34412866690895   -0.12292174418909
H           1.41185630308081   -0.29295900375710    0.93740260020043
H           0.72772852099023   -1.84456547578827   -0.00439365199521
H           1.52107663761774   -0.94626249183346   -1.01174235185052
N          -1.48080088975718   -0.65334626820930    2.25712787312990
H          -1.14161140436183   -1.80675592147666    1.09968732496369
H          -2.31364778060276   -0.64856562912129    2.83431192796453
H          -0.68184790660523   -0.54944659024308    2.87245856325334
H          -1.49501993490408    0.18943369366908    1.69137370767351
