    26
        -50.46365343  Gyration_radius:  2.4176609515 Dipole_moment: 9.110
 S          -1.15331055579066    0.86800959217739    1.36197439982986
O          -1.28619848203551    0.81097491618045   -0.09328132505761
O           0.23548313660558    0.48866226975458    1.74229004505844
O          -1.56703129762339    2.09152401959726    1.95703543719367
O          -2.04539656853614   -0.30791977072335    1.91043718504946
H          -1.76485075390437   -1.09781184136776    1.41306956753063
O          -1.24353006968393   -2.47622130579767    0.42173918338391
H          -1.93548205897206   -3.13742818028604    0.47125852888588
O           1.53918840175500   -0.39827763564092   -1.99503655020500
H           2.29555521839541   -0.32192403871372   -2.57748034870302
O           1.02848920201405    2.95463285980998    1.05769059154964
H           0.23500654595789    3.44133926501766    1.29936300083928
H           0.89151016307392    2.07858305362845    1.45476450519883
O          -1.21677221660190   -1.17445896210101   -1.81229136348806
H          -0.32805053350803   -1.04124221395773   -2.16866003616987
H          -1.31134233764771   -2.05974215686332   -0.49014783868039
H          -1.40477805759080   -0.35246095702240   -1.30996408817710
O           0.67229682288420    1.95858546459403   -1.43377871749744
H           1.23717555266293    0.54991247232725   -1.80889447608938
H          -0.18307004225618    1.65545249704137   -1.06475884446918
H           1.06176303082524    2.45593843669976   -0.68890887160631
N           1.27518316363254   -1.42479279063738    0.46269078619762
H           1.46830356520597   -1.09306426674645   -0.51388020718619
H           2.11508238391179   -1.76994374698256    0.91341041191926
H           0.85675772636682   -0.56697957577350    1.02916286052294
H           0.52801808085874   -2.13134741422254    0.46219615417623
