    26
        -50.45450026  Gyration_radius:  2.50681859676 Dipole_moment: 3.925
 S          -1.42962299060334   -0.27643489733331    1.67275064822368
O          -1.96304950635737   -1.60548417646307    1.38650048458829
O          -0.10118195072512   -0.33146149575904    2.25187397652870
O          -1.50631634477421    0.61320206843094    0.53059930197003
O          -2.39000021994752    0.33806836264379    2.77396239596074
H          -2.51727233998536   -0.39301958339247    3.37053660810310
O          -0.79617568356440   -2.34379561050076   -0.70127275468491
H          -1.36313181562666   -2.19134866292904    0.14639359425813
O           2.28339986652188    0.82375807971992   -0.77997787231753
H           3.19617449442811    1.10287510486678   -0.70009360080266
O           0.74331442524071    0.58203656782475   -2.99584839943767
H           1.32201975000913    0.73631942617486   -2.22384536480264
H           1.19227527065673   -0.05338769456370   -3.55556366055630
O           1.31674952576661   -1.46231311829718    0.33683031846000
H           0.15597539903872   -2.07356124215986   -0.37028688661760
H           1.72688156386804   -0.70408898385550   -0.12450819038004
H           0.89614731263883   -1.08599294193659    1.14305283061639
O          -1.54288229436865   -0.32800364716680   -1.94476673063786
H          -1.67430980265670    0.18168552565761   -1.11703037969585
H          -0.77599496794917    0.08437503340880   -2.40495432227971
H          -1.12948388438144   -1.55266047803622   -1.35187514096215
N           0.84724802255276    2.08295857156740    0.99960586732168
H           0.78040949364748    3.08501500656851    1.12685239338562
H           1.06022664353142    1.65933209510169    1.89625220166187
H          -0.07995232575376    1.73178017099768    0.75553766281890
H           1.74855234883801    1.38014651940965   -0.12072500074003
