    26
        -50.46811977  Gyration_radius:  2.5345578515 Dipole_moment: 5.660
 S           0.64467575638477    0.38982111436863   -0.49836430753180
O           1.02830116308897    0.17639960226005   -1.96416143849146
O          -0.19420341710981   -0.75482101430818   -0.08317413875750
O           1.86198663327246    0.43565832907053    0.28662463461913
O          -0.11842352083517    1.63206395881425   -0.37227839834080
O          -1.25371862947047   -2.47840685942771   -1.82868514773062
H          -0.92668250859201   -1.90358258572108   -1.10735069889422
H          -0.52914680551573   -3.06587096049884   -2.05029075332724
O           2.51783785857148   -1.27639437743622    2.15659368940923
H           3.37844439122105   -1.03141618349557    2.49955294729455
H           2.37330990617113   -0.71525599468679    1.35635828023111
O           0.41610158438599    2.05991709205730    2.14101780131940
H           0.12428116270580    2.04137692267609    1.19719307635324
H           1.37142451514425    2.14831373589713    2.08244075484157
O          -2.43832623412436    1.55965990654813   -1.61424889789584
H          -1.62043914413228    1.60709566566419   -1.07114887667451
H          -2.58165241097781    2.44540920661459   -1.95234351908949
O          -1.14530230402072   -0.16374397977277   -3.20208526274606
H          -1.36341584601371   -1.06542457102598   -2.88658752996681
H          -1.76307289175358    0.43739191842166   -2.72962765039736
H           0.16580966571911    0.06857386960523   -2.52244558986611
N          -0.01159567369453   -0.52332685391167    2.47219968101356
H           0.08383125146975    0.53278466465003    2.52611926354840
H          -0.73314264138926   -0.89056027374743    3.08264357363351
H          -0.21267621682965   -0.71863807844022    1.43557712866328
H           0.92579435632068   -0.94702425416529    2.64647134873873
