    26
        -50.45450027  Gyration_radius:  2.50679909607 Dipole_moment: 3.925
 S          -2.19838448642298    0.20989712582389    0.20316609918401
O          -2.61792098762527    0.27157249375730   -1.19434149735439
O          -1.87260589221072   -1.14068753669281    0.61898994480816
O          -1.14798834331556    1.16001828867243    0.51267983561695
O          -3.46247194399513    0.66208330551712    1.04591083947968
H          -4.17518546573158    0.19844375122922    0.61736759490056
O           2.14961588871122   -1.11270308824173    0.80058505204553
H           2.69533897425963   -1.76720917975465    1.23788974078015
O          -0.50319835347722    0.09029457180113   -2.52125393071028
H          -1.45275669479270    0.18214644258479   -2.12998048120686
O           2.88546060366664    1.09058145604437   -0.59385808587417
H           2.67123059781773    0.31597993751101   -0.03817386133032
H           3.42582352193876    0.77069293684295   -1.31792800033052
O           0.50445064353770    2.04076701213845   -1.36035524552276
H          -0.00654098041051    0.96666959046780   -2.13978247185925
H          -0.08537110623883    1.93277855970311   -0.58405825134989
H           1.41201886240765    1.81451114536313   -1.05201930906107
O           0.16148612400693   -1.75143813556782   -0.94485590951743
H          -0.61512567596689   -1.67084676674142   -0.34573811156242
H          -0.12942585566767   -0.72068695669666   -1.98097486625531
H           0.94374506128623   -1.56592425350880   -0.38840974562006
N           0.24022107667392   -0.37392692353897    2.42021360973451
H          -0.20513619173262    0.34513415281787    1.84821657402213
H           1.46255114264832   -0.80302631333829    1.48053950388390
H           0.34739611159171   -0.00798149880304    3.35795434814222
H          -0.42722662096497   -1.13714012738183    2.44821662495574
