    26
        -50.45901934  Gyration_radius:  2.63393255812 Dipole_moment: 2.639
 S          -1.56644693590961    1.15821308421924    1.59939193787333
O          -2.89878272990076    0.70254032830914    1.29808661886454
O          -0.77829024487763    0.22977432256682    2.39634270187407
O          -0.81978540184766    1.57084635678044    0.40525092035058
O          -1.72571356018373    2.46553127635040    2.49416853610085
H          -2.56635619455995    2.81863278127115    2.21784631327608
O           0.20264100888333   -2.45411419433278    0.12328687505417
H          -0.19592936070068   -3.07079104050488    0.73913073808681
O           1.77898276606512    0.61366904203592   -2.63793180448220
H           1.54386722605895    1.20585209439589   -3.35308404264910
O           1.79668693428413    1.59862026604832   -0.13433574532299
H           1.86530178436934    1.29797891850527   -1.06643813551643
H           0.85370038065109    1.81570451288129    0.00724147689741
O          -1.62844437552745   -0.66282368470730   -0.63243549671259
H          -0.51604543819563   -1.82726339696395   -0.13449145794209
H          -2.46049410021798   -0.61725747225628   -0.14140460281388
H          -1.23336813378924    0.21404846679238   -0.42317267117291
O           0.04130891814536   -1.44647431586399   -2.70323055787556
H           1.17486043708575   -0.15740069899472   -2.71009536749504
H           0.41035108480116   -2.14467178929921   -2.15404413084285
H          -0.72938702014985   -1.11644257058769   -2.21730450194352
N           1.52203639341202   -0.45682699296679    1.41415100251810
H           1.25835930135559   -1.30043541180649    0.86736071329703
H           2.25945019926265   -0.65484349989284    2.08037805711944
H           1.78289911605242    0.36186907525030    0.75501511116602
H           0.62859795542892   -0.14393545721692    1.91031752227733
