    26
        -50.46547951  Gyration_radius:  2.52154160791 Dipole_moment: 1.509
 S           0.20685802189852   -0.32536465229640    2.03748855796936
O           1.11298529930543   -1.45547967630877    1.86736048766022
O           0.75839523804287    0.89534727245831    1.49465952077627
O          -1.13158800526738   -0.61699609554344    1.54864072354783
O           0.04997852289972   -0.09332267822693    3.59832612177676
H           0.88231318535138    0.31490227871233    3.81144220892484
O          -1.73392624605014    1.27581577906357   -1.64465501038772
H          -2.18594563862132    1.90174378335434   -2.21158160412672
O           2.68307986067528   -0.00825066185040   -1.77094740374515
H           3.47100104636932    0.25067152286127   -1.29053399462578
O          -1.30710674851495   -1.38085468908288   -1.00948257062929
H          -1.39262427768726   -1.20395859095168   -0.05031762721638
H          -1.47376435562610   -0.52552622172947   -1.43796096337315
O           0.92856809813779    1.75606265100928   -1.03427221467795
H           2.02056596999068    0.72268424870667   -1.60075873761599
H           0.02341519159677    1.61764056934420   -1.35906882446403
H           0.88981824217065    1.55920399977077   -0.07748495181496
O          -2.52911728273992    1.50232288402249    0.87782099799153
H          -3.42175005210169    1.24827599274942    1.11994907886525
H          -1.94728167814348    0.78651864846332    1.22149616285117
H          -2.04978840078949    1.44616494705926   -0.72290590470929
N           1.24352308748742   -1.95122295598306   -0.68622099737130
H           1.87017802777559   -1.23620828011583   -1.15332923349377
H           1.26772849944606   -1.80293287245715    0.36697856465113
H           0.23480030471120   -1.78151270900640   -0.97473590854375
H           1.52968408968567   -2.89572449403086   -0.91990647821187
