    26
        -50.46547967  Gyration_radius:  2.52119645147 Dipole_moment: 1.491
 S          -0.84754624319289    1.61549913318794   -0.98509539156148
O           0.39047967696798    1.83291503819537   -0.27140458705928
O          -0.61958968825350    1.05898726417681   -2.31378563848119
O          -1.81870440806819    0.84338437375929   -0.22605805394198
O          -1.50480575941950    3.04376553183247   -1.19158327848553
H          -0.75402422479825    3.55657711203463   -1.47125888769536
O          -0.04439350748893   -1.05601582745275    2.49462613861032
H           0.13788255603425   -1.30717998635291    3.40080588277378
O           2.80762753063468   -1.09536763791746   -1.11619026436009
H           3.33925789067723   -0.43135459941895   -1.55795002369434
O          -1.25009989134282   -1.75021040900217    0.10572151877875
H          -0.79107117216977   -1.72247707190192    0.96104406426451
H          -1.63309492282853   -0.85604623835497   -0.00488374796558
O           1.99111012163313    0.12270465031285    1.02456220393316
H           1.46699499114694    0.83801812716096    0.61310323590434
H           1.36105301129530   -0.36713433902059    1.57859836120440
H           2.57508211677415   -0.69634521600464   -0.22788154960654
O          -1.59766904115600    1.09390183572065    2.37828124421101
H          -2.50951764366100    1.04190767557765    2.67120499917527
H          -0.58951244563316   -0.23156161836052    2.53130785832344
H          -1.63620821466010    1.12590061547067    1.39514007428197
N           0.31327936144643   -1.34923480050695   -1.97543736493198
H          -0.03742850569935   -0.37118831068925   -2.20398241962684
H          -0.26469300152380   -1.67236027668868   -1.14410973538518
H           0.18130840150209   -1.96933918173286   -2.76703998912448
H           1.33428300178421   -1.29774584402525   -1.69773464953525
