    26
        -50.45437065  Gyration_radius:  2.50786065885 Dipole_moment: 3.505
 S           1.93568765265522    1.12811076538441   -0.09482757531285
O           1.46575693804928    2.43791723140385   -0.53906621905469
O           1.20246960143505    0.68317605452711    1.08530817742706
O           1.96146416907626    0.13140647975959   -1.13687529089933
O           3.43644809080415    1.35332319431208    0.35980645237036
H           3.40282892543403    2.21669343333422    0.75985514493924
O          -0.99649081254943    2.17959056118235   -0.91643491364087
H          -0.00411713208501    2.44399539337738   -0.82776282423562
O          -1.22312138922951   -2.18911116534643   -0.49207639822045
H          -1.36314358834700   -3.06100140518828   -0.86308735984252
O          -2.76325214064003   -0.77272179656868    1.22303005723969
H          -2.22865795664059   -1.34777843765055    0.64085367830657
H          -3.60438071943643   -0.63867573415757    0.78349124414771
O          -0.53086409642576   -0.03887892623751   -2.00420087057221
H          -0.87792902922224   -0.81471741169655   -1.52013082711110
H          -0.93920870466805    1.27756676501189   -1.43869476735362
H           0.43692335610736   -0.03381599211386   -1.83284327490501
O          -1.29592776394745    1.45382416584197    1.43712582438568
H          -1.25407827896495    1.92904436018499    0.10021949858763
H          -1.84914239041438    0.64036882359118    1.48358538925869
H          -0.36048968170084    1.15925348091437    1.50735034738428
N           1.18171261319652   -2.07404296095050    0.51140002490297
H           1.18095862464367   -1.13162057596762    0.90476542709402
H           1.82121309594195   -2.02912943636124   -0.27444368187846
H           1.56849032948630   -2.70344257371283    1.20348399274546
H          -0.30314974255309   -2.19933430287854   -0.05983125575769
