    26
        -50.46254927  Gyration_radius:  2.41955600893 Dipole_moment: 4.385
 S           1.26505666869831    0.95865135900352    0.21758559937515
O           1.34964108858452    1.36980563550958   -1.18954801155505
O          -0.08265855139939    1.23809632956518    0.72867198302145
O           1.64288342716166   -0.41975382123698    0.41072808319672
O           2.26081238236031    1.84123988372294    1.02597696384832
H           1.93694035036948    2.74708791248860    0.83954329400598
O          -1.65872230950440   -2.27986234852975    0.23491941309803
H          -2.25584750996335   -2.97571318996006    0.51128711454367
O          -0.07415893465687   -0.17729752040286   -2.54476072209984
H           0.58437848334510    0.50219269750376   -2.12324326958194
O           0.72645189017442    3.74146046213625    0.05355849557499
H           0.92818744383822    3.41459966320827   -0.83157201913741
H           0.03718791867206    3.15020139974270    0.38903333344479
O           0.62526034509424   -2.19583428410427   -1.25177325472469
H           1.15699193485390   -1.67408415103290   -0.60866646169727
H          -0.19572469415193   -2.42727844725349   -0.77457952350091
H           0.25173670400037   -1.11125260618248   -2.15634360769625
O          -1.91566837476304    0.18860795030159   -0.88218177030443
H          -1.35393425327382    0.66701215291661   -0.23236402706181
H          -0.95671361181613    0.00450052128465   -2.00439241687033
H          -2.03728767233786   -0.70556589147623   -0.50824990802959
N          -0.42889724110913   -1.15340189382224    2.26522240049166
H          -1.22796804173398   -1.90781409572949    1.06781239851040
H          -0.72028306723758   -1.09536115432026    3.23320567222567
H           0.52566495147223   -1.49416017162293    2.24003452072516
H          -0.38332933667711   -0.20607641171454    1.89009571019152
