    26
        -50.46253660  Gyration_radius:  2.45891764643 Dipole_moment: 5.016
 S          -1.87107994122445    0.43583494584530   -0.76475015098971
O          -1.54924626806501    1.01690871380271   -2.04136686288229
O          -1.91569502396478   -1.02483020605438   -0.78140066048502
O          -1.05555058986915    0.91104068358678    0.34129118105531
O          -3.34980246634180    0.91460430901481   -0.41994130983557
H          -3.76389880179641    0.90988208683395   -1.27675132200874
O           1.86738470566733   -1.49778072184035   -0.18501426007398
H           2.56614695286493   -2.02394831868356   -0.57527337817749
O           1.90517489301800    2.33804858482493   -1.24449352591459
H           1.11104904848108    2.87140983346225   -1.31747446515297
O          -0.61714794865161   -0.00639376563632    2.80055537891086
H           0.25740474039173    0.39546242153073    2.87995397755884
H          -1.03884953952005    0.48525769125825    2.06829228661057
O           1.52580185939137    0.99439505980969    1.11318367534494
H           0.60297433452228    1.03643813075074    0.79833340258159
H           1.86827832403828    0.14919584137082    0.79111505130797
H           1.94881780707709    2.03747180757654   -0.31568155509726
O           0.90409951025556   -0.03681289162601   -2.07950548503691
H           1.39271329362462    0.80612961499865   -1.95948196208607
H           1.46444707612092   -0.97486433367132   -0.94485652665708
H          -0.02967221676136    0.22975269103452   -2.15447415167417
N          -0.44068695233346   -2.02221779886457    1.07258852429540
H           0.51579191710814   -1.98479965505418    0.65559099771592
H          -0.49681476235168   -1.34171050074615    1.88040474591162
H          -1.10790275837368   -1.65507478178259    0.30768060578415
H          -0.69373719338002   -2.96339947175677    1.35147579897623
