    26
        -50.45476409  Gyration_radius:  2.47357258097 Dipole_moment: 6.129
 S          -1.93705980353826   -0.85983216089208    0.99661823567730
O          -2.23651263924361   -0.30507202768470   -0.34197123169367
O          -0.86729931567002   -0.02723900535073    1.61045445825691
O          -3.07673067691145   -1.01528746007061    1.82986757316334
O          -1.29026749684132   -2.26425925395566    0.76988623260954
H          -0.46794218682802   -2.14699778842694    0.24492761294508
O           0.96409273564455   -2.09368564974992   -0.62931210751542
H           1.46663264375998   -2.89877677202485   -0.49878754175562
O           0.86753015481776    1.63031221315603   -1.67896286794243
H           1.17257171819322    2.07829782138042   -2.46845015228764
O           1.60096984649744    0.39498936022254    2.46110068935587
H           0.66557357044703    0.20909943754440    2.23899395814843
H           1.81961745482140   -0.18024707610854    3.19535444958179
O           2.45154996054164   -0.04337489620431   -0.05542102549144
H           2.26702089412351    0.16906848174405    0.88288997074157
H           1.57321499405605   -1.33336151568248   -0.38650467871837
H           2.05011967071266    0.66925320090878   -0.57537083106865
O          -0.47772307343603   -0.48866358995496   -2.31352627144226
H           0.37977712903026    0.80535246642051   -1.99349469354923
H           0.06599125698668   -1.23138678122265   -2.01230772270450
H          -1.23819367221532   -0.47790028256317   -1.69084391284823
N          -1.14818405396273    1.94798265932793    0.07448980197020
H          -0.86656632651722    1.32571999711258    0.90655941076680
H          -0.33723548108804    2.06896946500827   -0.56734313174125
H          -1.82223098314537    1.24300280933889   -0.34403295293632
H          -1.57871631023272    2.82403637773010    0.34518674847390
