    26
        -50.45870303  Gyration_radius:  2.54173793463 Dipole_moment: 6.041
 S          -0.03831945911112    0.26440197966344    2.20038108020307
O           1.41318357945209    0.47561240946677    2.26019839763652
O          -0.64657903163865    1.28600744461859    1.34864317245840
O          -0.41251920390152   -1.06972540807377    1.83449925792976
O          -0.56384769389059    0.52938984269406    3.66847483162694
H          -0.17724242399649    1.37710033670401    3.86061347709849
O          -2.70972343004715   -1.76982323792960   -1.29753388876927
H          -3.25624110192367   -1.79422957773780   -2.08321008631700
O           1.01788792895977   -1.05849035344933   -1.65421207031146
H           1.35081153142493   -1.52926849299363   -2.41878174069720
O           0.37850130778448    2.80858202607054   -0.56241379964507
H          -0.04550620779543    2.49259392447819    0.26378743241118
H          -0.23466354306670    2.52640596050886   -1.25254944468229
O          -1.26279947721690    0.52952748214151   -1.17279531527378
H          -2.34849686449547   -0.86135705827560   -1.23400207461131
H          -1.17937916770042    0.70204871485220   -0.21463789408633
H          -0.47508656639604    0.02358040797023   -1.42436865894102
O          -0.34489282033257   -2.70904099238915   -0.26924298990986
H          -0.35986622548942   -2.26234074040487    0.59916153421610
H          -1.25026792733515   -2.59692622384994   -0.61278056497473
H           0.52658326098596   -1.75557469242932   -1.09231016189111
N           2.15029823183525    0.87669103067837   -0.16513051991873
H           3.14316035463042    1.05054026460284   -0.27721900612838
H           1.83937604359833    0.06542864624894   -0.74418256768109
H           1.91368929162116    0.67347732732491    0.87005082305093
H           1.57193960404127    1.72538896950774   -0.43043922279493
