    26
        -50.44580819  Gyration_radius:  2.45526209197 Dipole_moment: 6.579
 S           0.24782966252539    0.57729387723154    1.89335401892551
O           0.67938642138403   -0.82875781458042    1.73044045670156
O           0.12137834379664    1.21520160667495    0.59540959432584
O          -0.88552711793816    0.70315706774975    2.75465937623175
O           1.46919199991966    1.31016580146760    2.59734002274244
H           2.05490740550433    1.55400963953904    1.88511942096952
O           2.78575832570929    0.45838347639866   -1.44159379141166
H           3.32411522810668    0.33273677211900   -2.22479005244557
O          -0.60931387074188   -1.47126937106920   -1.73360401703773
H          -0.92264585426269   -2.28419012715062   -2.13235446530960
O          -2.64346483796824    1.64526826722397    0.92935302676791
H          -1.96707752133710    2.08394754516769    0.40615298661612
H          -2.19454221985659    1.42155599869964    1.76286853739422
O           0.35568295762662    1.16414166549816   -2.04402020837618
H          -0.11912852670750    0.34323223693695   -2.23279986718282
H           0.16566748573840    1.34481646763734   -1.10371632331898
H           1.92486368880870    0.86995039008426   -1.74411543929943
O           1.57801499902337   -1.55095347707143   -0.42885600963844
H           1.22048763434187   -1.24150289013760    0.55983460769343
H           0.72401750267182   -1.56936421457607   -1.00341458978492
H           2.14961770598653   -0.78287357765826   -0.78765343816246
N          -1.95326883819197   -1.07116089305519    0.41338044746899
H          -2.38880172759986   -0.14354939035755    0.42118411658496
H          -2.66086573864057   -1.73878342009101    0.69560384009763
H          -1.21698986183204   -1.29249570847321   -0.90371685602074
H          -1.23929325604840   -1.04895993821346    1.13593459547492
