    26
        -50.44706821  Gyration_radius:  2.48410003308 Dipole_moment: 6.056
 S          -1.89498123880646   -0.24986785906401    0.59436767045868
O          -1.57761064822226   -0.39635587625019   -0.84258707029918
O          -0.68242200880215   -0.37335369194783    1.38616711120833
O          -2.68863296025669    0.90771774514417    0.86430644425829
O          -2.76885893383260   -1.52310121167685    0.95741397435295
H          -2.13409305066458   -2.22396761943749    1.07824250372463
O           2.10978447131268    0.83366859331642   -0.60953171640645
H           2.54955616410403    1.36592168510478   -1.27392035928930
O           1.34011228208208   -2.94297965839275    0.03613898251574
H           2.11618016616853   -3.47136488996620   -0.15732565738004
O          -2.10772470148770    2.31373820032053   -1.36600486846053
H          -2.04136086060050    1.53013593047344   -1.91890913263030
H          -2.53946219353999    1.99153842499030   -0.55557639957660
O           0.67784736077013   -1.04452644895831   -1.54212774357498
H           0.91022319848940   -1.87090751463664   -0.98869730715416
H          -0.33363200122493   -0.76722078004283   -1.24991041285864
H           1.28592280500431   -0.28014270667210   -1.19843976585372
O           1.91621473981829   -0.95322007603997    1.60849162254565
H           1.59948919183792   -2.30012006939067    0.75740451829276
H           2.27291553379355   -0.27356829011501    1.02161878158784
H           0.98078627468352   -0.70843129141170    1.73692515241392
N           0.15821433666535    2.16042208811995    0.35873064203235
H           0.31494198043459    2.97367190110922    0.94060099644302
H          -0.29394357782331    1.44853770498371    0.92805750388647
H          -0.51945224293144    2.41987904797374   -0.36381314478875
H           1.34998593298547    1.43389669243192   -0.20162230543465
