    26
        -50.44580823  Gyration_radius:  2.45539105181 Dipole_moment: 6.576
 S           0.56060211470701    1.32812363002937    1.37959677682478
O           0.78584238873222    1.87751670506706    0.02417859754377
O          -0.31489651536149    0.17203446358523    1.31149697591565
O           1.78006054086691    1.13573190945927    2.09933701927220
O          -0.27891805002574    2.43818395103977    2.14616732101743
H          -1.18726843217596    2.26765809029596    1.91039344784444
O           0.18305586496426   -1.21940947890945   -2.00540589488897
H           0.56162904986035   -1.48835423709677   -2.84346861564173
O          -2.98253317201820    0.73468106076111   -0.78457768365106
H          -3.72856356234711    0.58248016917886   -1.36707136427722
O           1.67410659555419   -1.55781427398034    2.30755904585484
H           1.88726869677946   -0.61926700344641    2.44883869303034
H           0.71343221377386   -1.58593010747084    2.31258757881545
O          -0.68126811451366    1.16902839036672   -1.80272574051585
H          -0.35598730035961    0.20436190528261   -1.95599621250682
H          -1.62583728338107    1.09627435058827   -1.41794942033280
H          -0.03947219225760    1.53519488285807   -0.99358264665009
O          -1.84985550571857   -1.49373389079333   -0.06472614761746
H          -2.69997438103588   -0.15966700485402   -0.43501022488538
H          -1.24024998999838   -1.72336831013672   -0.77927042126877
H          -1.29788334443568   -1.01446959880533    0.58219294248173
N           2.10930519128378   -0.73127472280774   -0.38472118229481
H           2.01732834350954   -1.26424745481625    0.48572109775541
H           1.96179982174547    0.24163491957725   -0.13170637114352
H           3.06742435511290   -0.82928542448087   -0.69851590676951
H           0.98085264675163   -1.09608293048629   -1.34334165392130
