    26
        -50.46847020  Gyration_radius:  2.51378330535 Dipole_moment: 6.121
 S           0.10797965237976   -0.51355982136525    0.66616339068780
O           0.70692887075638   -1.18597108359823   -0.60161708119038
O           1.22985507719532   -0.37038610110722    1.58359881605752
O          -0.36211736467996    0.81906177677434    0.22734564253067
O          -0.96974075026397   -1.32471606240468    1.17031370313895
O          -2.72584249347320   -0.06556334953783   -0.65492829795493
H          -1.92870512519463    0.39150521978412   -0.32979406730000
H          -3.01030617016813   -0.61543111661432    0.08095472371930
O           1.55495438645423    1.31830253910134   -1.53624160267938
H           1.72073767430673    0.45333164819340   -1.92157544163369
H           0.72300962677685    1.20498512504025   -1.02764634902745
O          -1.75770242042700   -3.59831711896796    0.03893829902136
H          -1.52642970505231   -2.80732198106537    0.56978386878867
H          -1.16911139758651   -4.29551297890014    0.33062607219485
O           0.26721095898042    3.12589255154885    1.38936413785048
H          -0.11883236022966    2.28382916509097    1.06376461643715
H          -0.12120978093076    3.81881038634067    0.85200537858204
O          -1.28575026602354   -1.88372542333567   -1.97844198404058
H          -0.07196472752657   -1.48377209645875   -1.20772476762520
H          -1.55126702053290   -2.67970175982879   -1.47449226261249
H          -1.93575064116266   -1.19313901975451   -1.71346481683985
N           2.49032688721430    1.74039140771554    0.90180734646661
H           2.05297443458607    0.81580379212007    1.27216430993618
H           2.40982016468293    1.67066890021373   -0.14309251999994
H           1.83243763749648    2.49076427708716    1.21256917731989
H           3.43849485244340    1.88377112391013    1.22961970816470
