    26
        -50.45176846  Gyration_radius:  2.4371109217 Dipole_moment: 1.852
 S          -1.31338681816941    1.15919719475197   -0.51576330536869
O          -2.19473847908608    1.57504518310896    0.53896617626909
O           0.04132675608155    1.71119838671706   -0.37374985275169
O          -1.25964961491868   -0.26693828878569   -0.76608289365867
O          -1.88452494312846    1.78134304421241   -1.86426052577016
H          -2.29842221470814    2.59606775547862   -1.59712033595665
O           0.34849220918699   -1.08903045261321   -2.73132165812837
H          -0.45463075718081   -0.66871652950406   -2.37027160001994
O           1.87623762528770   -1.35766680480639    0.87844195637617
H           2.62118405094685   -1.24969179328434    1.47129136923817
O          -0.31486566641929    2.42070149751664    2.30227881937974
H           0.28667472775284    2.63601541320088    1.58293980466138
H          -1.16460273976449    2.26454578640276    1.85731200582313
O           0.03567361581126   -2.81823566283305   -0.73443254137396
H          -0.65351646840578   -2.16849349028994   -0.54299068017800
H           0.34549600925717   -1.97186826559852   -2.29861871147231
H           0.75102294943786   -2.63469659061080   -0.11328215481027
O           1.82845722981151    0.17814256443443   -1.15912061557616
H           1.92622386273290   -0.46138932058287   -0.35928542402102
H           1.31437145367242   -0.36171384946500   -1.91514332908310
H           1.12339215125099    0.88922227738882   -0.84556320988321
N          -0.25763826526730   -0.41621274861637    1.97305717536053
H          -0.12218344305428    0.52612111140202    2.34841373150340
H          -0.73922711639245   -0.95902904019175    2.67944328732905
H          -0.88333097604435   -0.31266270699206    1.17943132705715
H           1.04216485135544   -1.00125463043925    1.37543118500279
