    26
        -50.46328765  Gyration_radius:  2.42787331894 Dipole_moment: 7.581
 S           0.70833931619566   -0.70267151525884    1.88527749133695
O           0.49294639270054   -1.56515636097755    0.69107482182709
O          -0.08363402234806    0.52558850781086    1.69135278693429
O           0.45141692762360   -1.36753220234112    3.11333825598259
O           2.20986247637715   -0.27928069533039    1.82951383800622
H           2.33892608958900    0.20806280386017    0.98678401571891
O          -0.79940532747995    0.11312180557909   -2.33851481934801
H          -0.89951464046842    0.18195536532885   -3.28823206218697
O           2.57994877224792    1.14010658896765   -0.40337445433515
H           3.21640514098399    1.82451981148858   -0.19218181467047
O          -2.67301799236423    0.47885073591595    1.64808491799727
H          -1.71082610977209    0.51389360765328    1.88042840370162
H          -2.94484029597396    1.39011210699897    1.52305908962982
O           1.44645997308046   -1.02150264403054   -1.71380374876070
H           1.18625328749404   -1.37341409347518   -0.83366447988342
H           0.08946084786288   -0.33137844531118   -2.17799974970510
H           2.10247497092699   -0.33964305905446   -1.51578023308336
O           0.13072118032013    2.00734860605947   -0.45950026604703
H           1.68853822133191    1.58947232559773   -0.48073302903145
H          -0.31875423299851    1.49110149313348   -1.14480623936243
H          -0.02057308209036    1.52886748658851    0.38928829266856
N          -1.86836919733031   -1.21352783882514   -0.23216464228943
H          -2.39482333232142   -2.06935163645379   -0.36752316366137
H          -2.35407411458521   -0.56603553545753    0.44153813070971
H          -0.89297311259898   -1.43277795132568    0.20100247812874
H          -1.68094813641926   -0.73072927713235   -1.13246379027820
