    26
        -50.44483788  Gyration_radius:  2.51303001181 Dipole_moment: 4.671
 S          -1.40391383517725   -1.30220186984890   -1.02699295730772
O          -0.56436890673508   -2.47422458365397   -1.04168819520860
O          -2.12452818037814   -1.15946030126224    0.24694941783049
O          -0.72017573833308   -0.07641734673446   -1.38704326660279
O          -2.52416961537313   -1.52698227203256   -2.12069649331876
H          -2.78073638049225   -2.42374323565780   -1.93411508751066
O          -1.57354746278855    2.51039707065979    1.59192002180209
H          -1.29877168427797    3.19720559371859    2.20116358431665
O           1.37515820086230    0.14342338832564    1.62281187090583
H           1.91979009080918   -0.11044321191814    2.36847125956760
O           1.72443398705487    0.41828112789080   -2.47561341714142
H           0.79912775945927    0.17274857764518   -2.30048160622813
H           1.77523302227725    1.35904982022758   -2.29043775676762
O          -1.10188552050828    0.05399258397082    2.11974563470934
H          -1.56615078396375   -0.50068407435365    1.32173920487460
H          -0.07867631734925    0.04897976675108    1.93168394878636
H          -1.40295795797127    1.02213223599060    1.98611426308310
O           0.32209705828149    2.05524849278826   -0.14775748801481
H          -0.11734379547825    1.36738330658314   -0.68612492776504
H          -0.91364397351161    2.50264475925467    0.84517982229617
H           0.93798636226069    1.56748127182427    0.41727023094737
N           1.90077035512632   -1.42599605523225   -0.28344557005643
H           2.62871220329179   -2.11794538292563   -0.15975804888600
H           1.61352373773673   -0.54392162595751    0.82198582012596
H           2.14095544004107   -0.84551394683324   -1.08918375073883
H           1.03308192515632   -1.91143407922395   -0.53169652369979
