    26
        -50.45376581  Gyration_radius:  2.45951481898 Dipole_moment: 4.182
 S           0.53851043997114    1.22558641901262    1.45988775309150
O           1.85073233354963    0.86131060992416    0.73280890936873
O          -0.56545142901230    0.73033398167152    0.68083044424545
O           0.58005984046141    0.77899329510937    2.81263097511668
O           0.53714060684181    2.76940997759695    1.42609929380262
H           0.54871904690163    2.97316164780975    0.45344534928894
O          -0.27605033513268   -2.49750943215126   -0.20189917274935
H           0.03181855906248   -3.40496784740030   -0.20669242119827
O          -0.45037894922565    0.84631677756601   -2.56972606136058
H          -0.80714972838971    1.01431593862117   -3.44281554770716
O           0.77969677247918    2.83238886154895   -1.15831928373083
H           1.68349720201295    2.51520479189725   -1.23524151838087
H           0.22053802687931    2.17382979647582   -1.61949244798998
O          -2.08984558462570   -0.55098738946058   -1.08434660110063
H          -1.65026080160902   -1.40472364218498   -0.95990493149685
H          -1.80223669144565   -0.03133745735662   -0.31522168612613
H          -1.15663228816121    0.35777446421688   -2.05898781681686
O           1.39462471743831   -0.65595219364483   -1.22145293393231
H           0.82698282135729   -0.13369326391713   -1.81663161107334
H           1.68693403198244    0.21827996353449   -0.06346274476303
H           0.81173252621435   -1.36138297858068   -0.86033361449270
N          -0.53702638328552   -1.85715229254288    2.35988342248220
H          -0.37754593797813   -2.23379076878152    0.76249277199142
H          -0.12906097286131   -2.46681841197198    3.05922436061647
H          -0.12666926011533   -0.93272230403257    2.49065129261605
H          -1.52267857331275   -1.76586855295609    2.57657383030041
