    26
        -50.45147129  Gyration_radius:  2.53211329283 Dipole_moment: 5.408
 S           0.06781140322271   -0.08012654338072   -2.27525375755656
O          -0.67825672649774   -0.86215986386248   -1.30427385309207
O          -0.71405591843386    0.55409252245346   -3.27370327823427
O           0.89332625506024    0.97369637484137   -1.46153335310652
O           1.17691159607753   -0.92657608566251   -2.86877815490331
H           1.81899937517203   -1.21847069391823   -2.05559761564694
H           0.26200066874332    1.56162993689773   -0.95814123596629
O           0.26769370229004    1.24448377091050    2.13396284060146
H           0.66367649248185    0.46024941391556    1.70547063205094
H          -0.49791399628228    0.87362198527461    2.59899371010807
O          -2.61877748222661    0.33653619897442    0.13652492465397
H          -2.28471130873300    1.23512647274587    0.02789452752113
H          -2.09184913783221   -0.19985880710152   -0.48267698683143
O          -1.78501454955524   -0.57213966428943    2.49378374982888
H          -2.16080251682037   -0.25676852763303    1.63326972686981
H          -2.52440558094044   -0.91937875392456    2.99259241248396
O          -0.67790222708128    2.40746022961951    0.01821119508940
H          -0.43553284175737    3.33463999332477   -0.00549510750244
H          -0.32304752419301    2.03670262492156    0.88365327310894
O           0.54367502033758   -1.21886516916999    1.00979805092388
H          -0.14926243036559   -1.40642815558450    1.65893746201410
H           0.06274824195115   -1.11909292617581    0.15916796566818
N           2.65625094210343   -1.52141542392227   -0.90332977719388
H           3.15917969476826   -2.39405842726660   -0.99374121480485
H           2.05423372131405   -1.56002481553326   -0.08244729579841
H           3.31502509719394   -0.76287566645576   -0.78728883028313
