    26
        -50.45030276  Gyration_radius:  2.46211475961 Dipole_moment: 3.749
 S           1.08000585099745    0.05234021191095   -1.88210288749816
O           1.08517675718097   -1.02158291207572   -0.91058490354909
O           1.92707261921091   -0.10397805201238   -3.00403064988166
O          -0.40063483385953    0.24545631389715   -2.34062210822986
O           1.40940385936381    1.37082355517627   -1.17150333313317
H           0.69954347444762    1.58069763072795   -0.45247800583957
H          -1.00517997908609   -0.35582934518959   -1.82563806638531
O          -0.35135705741251    1.84035151193144    0.56206225329482
H          -0.31251817410648    1.18439459533983    1.28603672427943
H          -1.24578421501485    1.78085304255613    0.15900745162539
O          -2.65218461403630    1.48220371471631   -0.77410770514221
H          -2.40233040700742    1.73507119709113   -1.66625483172144
H          -2.73134737375977    0.51660591712319   -0.78096098343323
O          -2.12214071516434   -1.21859599515449   -1.03228991400103
H          -1.63049042946184   -1.58318897906029   -0.23215915203728
H          -2.40615741550031   -1.98029438797031   -1.54031060991173
O           0.10116648574188   -0.00401133139683    2.50602169166207
H           1.05025058732906   -0.04724289262204    2.18347525199013
H           0.12658281728655    0.25640203915305    3.42739874550523
O          -0.62068391436059   -2.09518654145206    0.87036602136909
H          -0.52713047663632   -1.45132959014712    1.59200492015305
H           0.14808587704603   -1.93528992749489    0.29561144069167
N           2.49706493682294   -0.05595973565170    1.37792063984321
H           2.17323343999521   -0.48715824605000    0.51196753744008
H           3.29807750308803   -0.58149018475283    1.70495142031873
H           2.81227540689647    0.87593839141927    1.13621906259261
