    26
        -50.46997594  Gyration_radius:  2.47179273607 Dipole_moment: 4.049
 S          -1.25249466452347    0.49359294488004    0.34317449473245
O          -0.12550139257710    1.21100371672023   -0.29605084166135
O          -2.37690949918463    0.38365675133408   -0.55205755244543
O          -0.78321518713257   -0.81085223376290    0.81212926159257
O          -1.69768892663591    1.32820819861390    1.56215327387565
H          -0.87600604910596    1.54273825160829    2.08520557710140
H           0.28717560569949   -1.68515902332768   -0.16069670278540
O           2.29237224293490    0.33929266463713    0.29393209091958
H           2.84865037735654    1.09358601959408    0.49355767666859
H           1.39414755340811    0.71058792896650    0.11643289391955
O          -2.43095084914537   -0.73282708206824   -2.90098715983873
H          -2.75011989739374   -1.62514287487709   -2.75282362802721
H          -2.57877582745113   -0.25440499622601   -2.04830021735457
O           1.01153688251687   -1.91961500793313   -0.78665519617436
H           0.56343007725249   -0.98477214117519   -1.99010671565524
H           1.79148337097209   -1.47967984368137   -0.42392421781141
O           0.39857009170781    1.72712482007067    3.03034058368759
H           0.09127727455133    1.84398779761576    3.93117542081815
H           0.77732134778339    0.80443251241172    2.97919165578387
O           1.18890716487594   -0.71670571141891    2.58699094464111
H           1.86022102798170   -0.53207854506761    1.90976467775922
H           0.38312139621809   -0.92174814695653    2.06862269295424
N           0.12273993031939   -0.15457379495255   -2.49628211393555
H           0.70234702546026    0.19696781243731   -3.25054939862839
H          -0.00026448707780    0.56346241722100   -1.72254024346730
H          -0.84137458834950   -0.42108243424419   -2.83169725660361
