    26
        -50.46997588  Gyration_radius:  2.47006174095 Dipole_moment: 4.023
 S           1.24559534797257   -0.28985560927018    0.54847350599396
O           0.90472435071368    0.77945270420679   -0.41754598589836
O           1.67378216932668    0.26130143767915    1.80959681754671
O           0.09762287810138   -1.18625788501037    0.69232206139387
O           2.42671045414686   -1.08707323972256   -0.04348234854172
H           2.18430389941199   -1.32086154150927   -0.98234624395290
H          -1.46045438090186   -0.52973751912813    0.71669562328521
O           0.29074009863509    1.80041168301123    3.38408615165278
H           0.95155570992343    1.24403241957156    2.90237398962006
H          -0.13501882128158    1.20980953165535    4.00854298732427
O           1.73417102597710   -1.86796678167144   -2.41397159837668
H           2.23065806171516   -2.66703994231920   -2.59988596754913
H           0.80458890470553   -2.15853135502931   -2.19272350505885
O          -0.66549078722526   -2.39541165171321   -1.54515294056733
H          -0.42587743091539   -2.15717711833949   -0.62549398523512
H          -1.11437286132963   -1.60249913254262   -1.88158802948648
O          -2.24183865829222    0.04376347052865    0.53809985861383
H          -1.55823411289296    1.43647631214531    0.87849514133726
H          -2.32042182765543    0.04635008094652   -0.42482098511674
O          -1.12153046781411    0.27788388218140   -2.02945580272715
H          -0.32430682592703    0.44902631066572   -1.47166358798673
H          -0.86685836603811    0.51382416490244   -2.92251729217194
N          -0.78695249866555    2.16572832587321    0.99227911156729
H          -0.45663577598088    2.16862258675171    1.99461904313131
H          -1.07139881912774    3.08921144276752    0.68461286300465
H           0.00493872345541    1.77651743339635    0.40045111814450
