    26
        -50.45062488  Gyration_radius:  2.43101321276 Dipole_moment: 4.640
 S          -0.66319091068573   -0.24432792534519   -1.87559615059891
O          -1.56557566814028    0.85782653817360   -2.09827139267085
O          -0.06177177782653   -0.85773818163766   -3.00823110278824
O           0.44138257076130    0.22519018722263   -0.90156103683746
O          -1.39286080162022   -1.34526466858992   -1.07673441746923
H          -1.56696719679397   -1.02759860433499   -0.12139567324928
H           0.47383687464230    1.23397321836244   -0.67043010895287
O           1.78920104272701    1.38606508006329    1.97657409590249
H           2.73442653623513    1.42946719106416    1.82331549470155
H           1.52800528299624    0.46223185612070    1.80391858477849
O          -2.11183533464340    2.00645419247465    0.17192493468577
H          -1.97493906077623    1.62373409462681   -0.73254342233714
H          -2.99006587401308    2.39050604753828    0.16845699308005
O          -1.57805234041639   -0.43450202918539    1.27900625786412
H          -0.63089571196221   -0.56198553967174    1.48652261169544
H          -1.72628180272829    0.51365147357311    1.10812945888943
O           0.53579735991710    2.58660307017652   -0.05375390258478
H           0.99169514436352    2.31900674746074    0.77710080741462
H          -0.40115128049996    2.70850544928270    0.16882630264531
O           1.03222282423058   -1.21057495837531    1.50124527678605
H           1.11581049230897   -1.94931925800580    2.10657483798870
H           1.13896931501248   -1.58511357357130    0.58088779425060
N           1.24647486959483   -2.50423693635382   -0.85283795438500
H           0.97933176357479   -1.85818057821965   -1.59028876341482
H           0.53559288753902   -3.22687425311271   -0.84363593120488
H           2.12084081622003   -2.93749862969864   -1.12720359417534
