    26
        -50.45286953  Gyration_radius:  2.52357476511 Dipole_moment: 3.662
 S           1.28523167319442    0.00569241173294    1.14359341399597
O           0.93916306096113   -1.03784496118387    0.21580836545523
O           1.10055330969673   -0.28729107561734    2.52680010977414
O           2.71238451850212    0.46921795505437    0.87430000840292
O           0.40384853296378    1.25347932661781    0.82240853673877
H           0.34302855715789    1.41944805028341   -0.17940205235184
H           2.82642749275607    0.41409165804131   -0.18245813706505
O          -2.91536955081123   -0.49270456811842   -0.96550035720197
H          -3.47313059590890   -1.25025416839099   -0.78474338791728
H          -2.71829319811651   -0.08908493896892   -0.08636084352911
O          -1.25911474841966   -1.48537260950423    3.03588605762082
H          -0.34987226764984   -1.17306767803652    2.86866607451083
H          -1.38965007185921   -1.42473261947305    3.98430887447052
O          -2.24314144985854    0.46228197464187    1.43104518423728
H          -1.40196091827191    0.92852233693357    1.35609153974127
H          -2.05957997999695   -0.30127635471834    2.01425642476164
O           0.13653585606901    1.60334177390017   -1.69565181981247
H          -0.12910930753487    0.65113186235438   -1.94218052159733
H          -0.65679991542955    2.13158994104890   -1.80991406245170
O          -0.49573166083818   -0.84936506793512   -2.03404057050098
H          -1.43989101377157   -0.81154274424631   -1.75915494046718
H          -0.01561111454149   -1.14982303397657   -1.24088632282056
N           2.74828744585952    0.28905472140880   -1.64812609732701
H           2.12697752934491    1.01230157992191   -1.99502857691530
H           2.30220340994704   -0.60895612351540   -1.79447331978955
H           3.62261441657555    0.32116236172552   -2.15524356998530
