    26
        -50.46876622  Gyration_radius:  2.44071481351 Dipole_moment: 3.761
 S           0.16047183764375   -1.07761799769572   -0.50081045293894
O           1.39182419883959   -0.33901049023754   -1.12639378989388
O          -0.33300791646346   -2.04354858576800   -1.44581975641190
O           0.67669931544572   -1.62350121329591    0.74000207935104
O          -0.85075331951071   -0.03245729981396   -0.21988790959044
O          -1.75444823100563   -0.35947331388951   -2.85031393119194
H          -1.29078156709193   -1.12376420220252   -2.43448238835585
H          -2.26435677938739    0.02535757197877   -2.13235093275098
O           1.79031760419328    0.76315913873394    1.57725363965879
H           1.62448228473650    1.41472418275856    0.86826176892173
H           1.72817105343439   -0.11095964283934    1.15637803488507
O          -0.55550225498918   -2.10063406897002    3.01395545700843
H          -0.13148140030989   -2.11492874542498    2.12557814759432
H           0.07434610757146   -2.51198956185496    3.60862338277076
O           0.50178968076714    2.27975649626334   -0.30933796582552
H          -0.10148102529322    1.51354255143663   -0.34687307806292
H           0.75926667863771    2.43872784566436   -1.22089254802998
O           0.41569422760629    1.07360735336501   -3.08843374153664
H           1.07819914389602    0.19489243701057   -1.90070546900657
H           0.81820558910929    0.86704043711288   -3.93413601769620
H          -0.47460694704859    0.62321028410122   -3.09083216568730
N          -0.67985511953759    0.47126954238412    2.33779715744337
H          -0.94179680995813    0.28695266194784    1.32664895931466
H          -0.76053772319080   -0.44398696009024    2.83792201458042
H           0.35844402460069    0.72144516969419    2.25714266041402
H          -1.23930266294623    1.20818642846948    2.75170685595986
