    26
        -50.44731991  Gyration_radius:  2.52098558224 Dipole_moment: 6.576
 S          -1.22117378997522    1.92417669050341   -0.93200182589019
O          -1.16171151037710    0.56679507383672   -1.41743866630425
O          -2.16879558652623    2.78376415998722   -1.53416099770055
O          -1.43852829673316    1.83555206439367    0.61926344848688
O           0.17829448313091    2.56632597361051   -1.00720803878192
H           0.86631249144581    1.96578632959563   -0.59612432482597
H          -2.10567935569865    1.07482646624476    0.72115836725973
O           0.44354489681384    0.47647100064554    2.19105231322605
H          -0.26120757184736    1.10670155556096    1.98882715967130
H           0.05158430358307   -0.40640098444900    2.04840084181045
O          -2.86022535802148   -0.25764921931538    0.59674504656262
H          -2.24764203746457   -0.89531776451935    1.02575316810247
H          -2.72173818553851   -0.36430684612752   -0.35291646829612
O          -0.17184101960717   -1.93904767275495   -1.01708599547321
H          -0.54405720132994   -1.09654990968719   -1.32579280034870
H           0.80143104816128   -1.84479249601001   -1.14657425356859
O           1.98358675018026    1.16608809769603    0.22006394005385
H           2.58492944042336    1.82847517149762    0.56739899409226
H           1.46004712786917    0.82855113015887    1.00593082494704
O          -0.83525680482888   -1.81145454894219    1.46285379749242
H          -0.88510389288967   -2.69075154641677    1.83864189603898
H          -0.53283998532832   -1.92365357564254    0.50506886710188
N           2.45897998081043   -1.35102759530343   -1.33825125361649
H           3.20690456168856   -1.90084271303067   -0.93563239974642
H           2.44388542074946   -0.44761998002372   -0.87398206476891
H           2.67630009133064   -1.19409885151834   -2.31398956573336
