    26
        -50.44837650  Gyration_radius:  2.46001962119 Dipole_moment: 4.186
 S          -0.28658364143294    1.90705189348964   -0.63836182303960
O          -1.57670812445990    1.51292032879037   -0.12225800813722
O          -0.08283106566779    3.28795981896603   -0.87684063902166
O           0.80963068764028    1.35492521587453    0.32455049101878
O           0.00869752775853    1.07216990497482   -1.90076039312128
H          -0.50816543006594    0.21316648325798   -1.74890564233433
H           0.60939818542820    1.66336225855126    1.27814073812325
O           1.94618041009495   -1.21513758653686    0.35166227821956
H           1.86815770350443   -0.25699633986354    0.44334597429916
H           1.94658984511175   -1.38389442553912   -0.62114345339352
O          -1.74421150484272    0.22434506211172    2.24117469381605
H          -1.31534062806836   -0.60648038221084    1.97847586322394
H          -1.91663311047650    0.69390883081494    1.40584311095652
O          -1.44776750339245   -0.93582205462931   -1.30483051761864
H          -1.09394147170793   -1.37792506994722   -0.49786171477697
H          -2.12493227914850   -0.32941682017511   -0.98043447177737
O           0.09207930158277    2.02722922845109    2.65568285596922
H          -0.36404702266241    2.87117345388596    2.62967993685324
H          -0.61196342897690    1.32257130869593    2.71859506768818
O          -0.46426926001314   -1.91189306630053    0.98873256010778
H          -0.47696154853226   -2.83237772066378    1.25394909133204
H           0.49874580422782   -1.67485032497390    0.83195333216409
N           1.63489265438281   -1.43863789209269   -2.34145070333840
H           2.32177269700024   -1.84804001600545   -2.96203519453835
H           1.53597807278953   -0.45827561290152   -2.58146251357745
H           0.74223315992602   -1.88103647603069   -2.52544091909742
