    26
        -50.45611266  Gyration_radius:  2.423426596 Dipole_moment: 5.645
 S           0.20834618139298   -1.67824093719669   -1.08945646727170
O           0.03120207408015   -1.61884874655382    0.35961495648396
O          -0.51579785390053   -2.73480322534292   -1.70532078916854
O          -0.19480982434654   -0.30860735217995   -1.66991564623988
O           1.69170514403708   -1.74796627273505   -1.40241282618717
H           2.14292610380975   -0.92392539648605   -0.94224710270419
H          -1.07657554334788    0.04740879426627   -1.23990887683888
O           1.14430708952553   -0.08590972931881    2.11175015150781
H           0.71876119824134   -0.71641409849289    1.47750863247574
H           1.30429765149191   -0.58151276615868    2.91645634300690
O          -0.82603147642904    1.71380024271768    1.52674474444703
H          -1.26514706266453    1.97350773642709    2.33823144884120
H          -0.08838998205087    1.12434838837529    1.77949352549323
O           2.62187587585814    0.26303877029957   -0.22156322815439
H           2.34758336896873    0.17435299401171    0.70497705623189
H           2.10707031334660    1.05149279950760   -0.56067692327201
O          -2.24131165305165    0.50476440400079   -0.48483587933453
H          -1.83522881131108    0.96300892121738    0.27774688785963
H          -2.59206463061811   -0.35574498590417   -0.16004448866969
O          -2.60314255915984   -2.04958122795110    0.19141355528500
H          -2.62965229804792   -2.59866685037450   -0.59767069788159
H          -1.66930562383070   -2.06022870675361    0.46159925207589
N           1.01925892534235    2.26548258288903   -0.94102492473147
H           0.36963051342677    2.40148278858613   -0.17409771853621
H           0.51233637495124    1.80337122407520   -1.68693834073153
H           1.31815648427091    3.17439068907777   -1.26942263397759
