    26
        -50.44679104  Gyration_radius:  2.46631691878 Dipole_moment: 6.090
 S          -1.13663274521012    0.91137892659969   -1.79576224424768
O          -0.87550752791297    1.91193633613515   -0.77956540782456
O          -1.69190188174440    1.37146134156182   -3.01186915438404
O           0.19155610003799    0.13640329519131   -2.01850993835257
O          -2.06206893862077   -0.16712684245767   -1.19180557781469
H          -1.56151407252135   -0.78621517329593   -0.55574982956985
H           0.92963231434830    0.74741086350349   -1.62458093678361
O          -0.50064607910685    0.00477151819074    2.52142371298023
H          -1.19669311079819    0.61052697284602    2.15023521930949
H          -0.67408669687049   -0.06672435757286    3.46087704400071
O          -2.36827981533001    1.41146468532653    1.33328431234890
H          -3.04284653540345    0.85359295783519    0.93783217784683
H          -1.84529918776956    1.75905591123767    0.57985233369347
O          -0.79045558575206   -1.67313812480753    0.42247085550083
H           0.10101860767309   -1.84379322594822    0.06792424741960
H          -0.68108039386368   -1.17667296338157    1.25688051252653
O           1.78402519679671    1.67986934345206   -0.85479769057805
H           1.98185392660107    1.18038884522960   -0.02358578728578
H           1.04865708729005    2.27166938578395   -0.63931663039962
O           1.95034907433511    0.08237979597678    1.25788968858349
H           1.14380040961255    0.16091903986507    1.79446226672814
H           1.91568950162906   -0.78176774559176    0.82925012129708
N           1.72395863046694   -2.08485868658494   -0.77881967418945
H           1.36522402152233   -1.50681312878204   -1.53577842404272
H           1.56124078989277   -3.05189196899288   -1.03804635897102
H           2.73000691071507   -1.95422698133958   -0.76419483780574
