    26
        -50.45813529  Gyration_radius:  2.49404806145 Dipole_moment: 2.756
 S          -1.12528178868350    0.94665350305366   -0.77428038282087
O          -0.84648719191699    1.54385500687079    0.51663523022758
O          -0.31041744651217    1.46062805358022   -1.83598194713856
O          -0.97104601269954   -0.56400943465515   -0.66627112334659
O          -2.59743811566202    1.14262874164704   -1.13337781608790
H          -3.12310996159957    0.62032885991985   -0.44328380159639
H          -0.25323121603809   -0.89394014109326    0.07479924143785
O          -1.67698528769978   -0.24801731350855    2.31534665129633
H          -1.31147773571946    0.52304478236126    1.84138082410172
H          -1.01920254417926   -0.94547354285404    2.22570779017608
O          -3.78027686445167   -0.13217759715723    0.73629281393078
H          -4.40369888359852    0.43556746867815    1.19540404704090
H          -3.04823526804412   -0.31645069178555    1.38003035490838
O           1.75849169518632    1.12268769293457    1.10501794493812
H           0.88800648385624    1.54508345236096    1.01711460633880
H           2.14899517273946    1.13937362777688    0.21399294080681
O           2.27474909116787    0.98341725861447   -1.60571299275108
H           2.73591219551288    1.67625304315821   -2.08239074137965
H           1.31764153567494    1.13762301661544   -1.77097478077016
O           0.72881286523815   -1.27740786657787    0.97869170501225
H           1.36740966298219   -1.70856605075554    0.33974844208390
H           1.17639364935224   -0.41605401197846    1.20918176822748
N           2.37414923846799   -1.95066669828904   -0.97908585448868
H           3.29368467309761   -2.34751386969058   -0.83483172905140
H           2.49053154061008   -0.99760324556722   -1.31530944277521
H           1.91211050292355   -2.47926403367556   -1.70784373833917
