    26
        -50.45076717  Gyration_radius:  2.48100116077 Dipole_moment: 2.156
 S           0.03191347937332    1.66457687325409    0.29396579025504
O          -0.80825975241931    0.61260902404836    0.81006787036150
O           0.87163272504764    2.29477397445350    1.26210855091334
O           0.88454055699074    1.10194906452467   -0.86586567647235
O          -0.81905157048300    2.71977718587312   -0.41248325193404
H          -1.24016321232561    2.22016450807524   -1.19013540960895
H           1.03591373064869    0.09445039920597   -0.80559522336795
O          -1.17279990582569   -1.19167557911511   -2.11138999071803
H          -0.28590824115126   -1.39034824831111   -1.78385499280867
H          -1.77694819022510   -1.40159495065108   -1.36985994141899
O          -1.68552243114683    1.36074297161092   -2.37319721608438
H          -1.20159705657526    1.65088000807769   -3.14906315605294
H          -1.49483764354732    0.38150786536063   -2.28546387776374
O           2.74162989774304    0.55423615199733    2.13901383921349
H           3.37400576167707    1.04446919524503    2.66743300083789
H           2.08589548372815    1.21063774728546    1.83791902113785
O           1.29593881219293   -1.40088055966807   -0.74247858053909
H           1.08800050666491   -1.58086748203720    0.25352846983316
H           2.24185752029622   -1.52216904480428   -0.84534994626980
O          -2.68614661575791   -1.19321276038996    0.11938282700497
H          -2.03920434531800   -0.55522623120681    0.47170128679711
H          -3.49983392741647   -0.70246614087036   -0.00927406375331
N           0.81796981692733   -1.57415578912159    1.77417331378118
H           1.60257200949681   -1.06371404571915    2.17172315952929
H           0.62105267633165   -2.38482134854963    2.34520349248875
H           0.01734991540186   -0.94964278840245    1.79779071503532
