    26
        -50.44945241  Gyration_radius:  2.47360092177 Dipole_moment: 4.980
 S          -1.10407101674234    0.58865739647931   -2.06632466927425
O          -1.55581927491679    0.49048554703191   -0.69566198284430
O          -1.78495718296825    1.52863954460686   -2.87889654009839
O           0.42865917429520    0.86386177594256   -2.04840766294516
O          -1.13184178550865   -0.80985772667334   -2.70906949646188
H          -0.49797962015227   -1.33446966127539   -2.13977385635942
H           0.69869582860991    1.52179766486240   -1.34039929448156
O           1.18419093827267    2.43923991065503   -0.16216675701469
H           1.12534825593333    3.36582616608238   -0.39985419440084
H           0.48539896443495    2.27858464111699    0.55076222703137
O           0.64526775028662   -0.30210929239454    2.59696197927630
H           1.21183588926335   -0.13323617318933    3.35079381625321
H           1.24088387655252   -0.34700138273433    1.80765412851569
O           0.44843280172530   -2.02332222584538   -1.07690906821513
H          -0.17678848281938   -2.04757335128227   -0.26470984056770
H           0.66983845721397   -2.93134248345889   -1.29202534595218
O          -0.68906886756326    1.81153924599503    1.48385448357017
H          -1.20705251141813    1.38443603052656    0.77785568199064
H          -0.31526609688216    1.07771824979324    2.01075244136207
O           2.11683238356201   -0.26809848840311    0.38160959398747
H           1.64647687991836   -0.79560000269827   -0.28252585593667
H           2.08274704241084    0.64690839998181    0.08044282811244
N          -1.20943001254241   -1.86524518920148    0.90457826804642
H          -1.91513259831387   -2.53725089428171    1.17425741938906
H          -1.67038711961504   -1.05395334693015    0.49731505977090
H          -0.72681365303879   -1.54863435470635    1.73988665724582
