    26
        -50.44945241  Gyration_radius:  2.4735619158 Dipole_moment: 4.979
 S          -2.27567921298961   -0.69774570902877    0.41036803311878
O          -1.07234305847344   -1.41138577585445    0.04271046283838
O          -3.22637164668847   -1.42983126556550    1.16385042893493
O          -1.85379352334175    0.60678983638062    1.14906950460498
O          -2.92064939724242   -0.10806953338400   -0.85693046539778
H          -2.21182796858063    0.50398238478789   -1.20916567712276
H          -1.09202540631640    0.46477865057488    1.78683207367466
O           0.18328219563903    0.31997825689269    2.69143225227517
H           0.68644302590763   -0.43864098416290    2.25129402392395
H          -0.05013096739325    0.02008594866695    3.57125049705279
O           0.91882628455052    1.92703342407697    0.37340449587783
H           0.63047414598158    1.66938033675083    1.25632749401772
H           0.14829240412198    1.83228993827697   -0.20786325931447
O          -0.94695234549123    1.33512463034831   -1.66644284040378
H          -1.10787904164679    1.88742786416564   -2.43380894462824
H          -0.32709303590344    0.57474577466726   -1.96430979046615
O           1.27384169802028   -1.58445371066473    1.35114201796487
H           0.45173087539567   -1.74519077502380    0.85369906086592
H           1.87123525027856   -1.13073744229679    0.72414174890370
O           2.67142409117168    0.05590714726770   -0.33486025656583
H           3.54928618613939    0.33394666824075   -0.07065009498459
H           2.06513584939501    0.80640579360763   -0.11363543858611
N           0.53369182661809   -0.71204060927463   -2.22912150511964
H           1.46993531199260   -0.57856464714654   -1.85962595482675
H           0.60122859884223   -1.20146244149251   -3.11130238427153
H           0.02991785001425   -1.29975376081044   -1.56780548236716
