    26
        -50.45538852  Gyration_radius:  2.47719742808 Dipole_moment: 2.363
 S          -0.47236589297021   -0.42384026974514   -0.82291687227693
O          -1.07655747168221    0.50405140974828   -1.75050893222570
O           0.94562433649581   -0.11006150663697   -0.59197494085629
O          -1.18513368621293   -0.53265713550097    0.44659400057401
O          -0.49903094646528   -1.85837222460385   -1.44483593637969
O          -1.90011338743890    2.07312424368884    0.24222194174411
H          -1.68984242193695    1.83247385857078   -0.67724099757772
H          -2.02719054864325    1.20646104477893    0.65321030000000
O          -0.03541238648909   -0.60527757367651    2.84915203152574
H          -0.67009463730872   -0.55681650908933    2.10311657638077
H           0.29763402034914   -1.51243615023388    2.79314465696960
O           0.37715619697689   -2.73690814422282    1.19188838094862
H          -0.24221852305522   -2.17027433908850    0.71222799196147
H           0.77497329364585   -3.30372188177719    0.52998288824096
O           0.20759828054041    3.00516192431674    1.49208273481769
H          -0.11977159101782    3.34176372126801    2.32850543719396
H          -0.59448009244576    2.74012502807956    0.96368063081466
O           1.57997142778620    0.86211656150177    1.59168397252846
H           1.11708283650289    1.77891353393757    1.56768004449950
H           1.00264664829130    0.26418730861517    2.22570563846279
H           1.39471247696451    0.44455656973462    0.63417149169901
N           0.63700193684744   -0.85277420210319   -3.55367736544306
H           1.58044541255472   -0.62250003129286   -3.26865108188013
H           0.04667619338821   -0.05818915421211   -3.31971226046378
H           0.62471417896744   -0.99030048223004   -4.55638519881377
H          -0.07402566362834   -1.71880559979619   -2.33914512243432
