    26
        -50.44669159  Gyration_radius:  2.46424241368 Dipole_moment: 1.852
 S           0.36545885317299   -2.17431547254674    0.53609659624918
O           0.46330253398752   -0.87186604959225    1.16324204790762
O           0.12264295291958   -3.25401198513079    1.42143928993532
O          -0.74708727052353   -2.09190140218689   -0.55640658986965
O           1.60645834280366   -2.42408820506244   -0.31581467412427
H           1.59852455375074   -1.66269816661849   -0.99130219020352
H          -1.47427231692051   -1.46798399494436   -0.30612745574835
O          -0.76643011419649    0.82197447001405   -1.82298455774786
H          -0.58153254949282    1.58943047001067   -1.22298456752989
H          -1.54237849778797    0.38779124295412   -1.45703652726506
O          -2.64625179870514   -0.39959497242582    0.07053780414670
H          -3.45756998093813   -0.79906759420458    0.38932165946200
H          -2.28634023342423    0.15729898348514    0.79727150875895
O           1.44283600200130   -0.53969996153632   -2.00513013558077
H           1.40059664825543   -0.92653237814329   -2.88219562763982
H           0.59054419110259   -0.01706275346898   -1.90216629755448
O          -0.22028188827696    2.62167954657397    0.04158860000069
H          -0.68646320767830    2.25718001364266    0.80338580076573
H           0.71793162467853    2.34428553170971    0.15351684495477
O          -1.32000744092962    0.83956942024376    2.02582321944460
H          -0.57298031523267    0.25206201598220    1.76714873453569
H          -1.39284093536261    0.78082356672860    2.97973545088103
N           2.17417454577309    1.36199074147499    0.32298386379100
H           1.74267857702602    0.54514507452589    0.74805870743092
H           3.00852903549620    1.58513786902786    0.85046415990460
H           2.46075870850859    1.08445397948085   -0.60846565492577
