    26
        -50.45411064  Gyration_radius:  2.48783200315 Dipole_moment: 2.436
 S          -0.03528523858411    1.02533166922422   -1.55521333443322
O          -0.88758596372441    0.12914335823129   -0.79277339469570
O          -0.01628339894546    0.82351220950213   -2.95445056074039
O          -0.50189798504632    2.47163902082026   -1.24209619147495
O           1.39005630380741    0.95256376245157   -0.99875510947768
H           1.42213492463488    0.99753935176468    0.04666758924692
H          -0.65849645666394    2.56608704568355   -0.26467208631782
O           1.30135295003245    1.03265818572586    1.50316437597547
H           0.64659404661302    1.72072126054573    1.69116807108048
H           0.85119773116346    0.16238244350572    1.67832808059164
O          -2.48402198217660    0.50738502833666    1.37471809875264
H          -2.23325918460395    0.29913051288521    0.45883000364556
H          -2.04306156151770   -0.16614174585622    1.90767654429353
O          -0.13629717208060   -1.15806707705383    1.47599184071261
H          -0.42715032980009   -0.85821089252522    0.59681704572924
H           0.42128878108909   -1.94225999401690    1.29026278461821
O          -0.96378371484350    2.61638566236606    1.33397352519396
H          -1.61136065743560    1.85892212978032    1.44136436125689
H          -1.43395062804453    3.41911004813963    1.56709348600306
O           1.27378241920004   -3.16785775176716    0.38948537642568
H           1.27593540519633   -2.73448077560477   -0.49763516700418
H           0.88682345085551   -4.03589104375845    0.26820352414797
N           1.03054630430815   -1.82828594252576   -1.97434861942314
H           1.11870205524757   -2.23100090296874   -2.90010936087687
H           1.69798727850800   -1.06699332579006   -1.91848897509373
H           0.11603265278786   -1.39332224707719   -1.92520190813061
