    26
        -50.45526307  Gyration_radius:  2.45327074469 Dipole_moment: 5.189
 S          -0.55410946641162    1.20652556096260   -0.33275983471709
O          -1.45385855545453    2.09796430591910    0.36432419089656
O           0.27862514780473    1.85473482137910   -1.31919276411646
O           0.44485818252178    0.63189731537995    0.78710456676075
O          -1.21415139355941    0.00566312351585   -0.83585855006313
H          -0.87042876107254   -1.30590683775599   -0.31619223022794
H           0.90566287629212    1.45071045120020    1.06341778385813
O          -0.55663889505996   -2.18534188466290    0.14626428832903
H           0.44358196388898   -2.26692470439117   -0.11606394076443
H          -0.59679685576049   -1.93459391183895    1.16870063351923
O          -2.72455514790448    0.21302623527740    1.70576607339533
H          -2.31436193480525    0.99602129494359    1.27886583742703
H          -3.23336696771100   -0.21192535912314    1.01198349900023
O           1.84237862355925   -2.24647319216081   -0.64326403282292
H           1.78283117615030   -1.50014785867790   -1.32883997804048
H           2.09097104739358   -3.04171610694048   -1.11803877205031
O           1.03188542093831    3.18855580516381    0.89346931668711
H           1.04447148110307    3.07695310876067   -0.06976721926084
H           0.11241332860319    3.39769478717981    1.09777417834405
O          -0.67946019613286   -1.26495620532929    2.47570193330577
H          -1.52668881172451   -0.76116073823900    2.36961118475261
H           0.01314577339613   -0.60176673908116    2.35811538922968
N           1.50229732838941   -0.40638822452854   -2.47586055353028
H           0.83963435374617   -0.72828386453128   -3.17182941557599
H           2.32145262213944   -0.06898150851323   -2.96764626638853
H           1.07020764837437    0.40482031603474   -2.02578533795369
