    26
        -50.46811977  Gyration_radius:  2.53468188969 Dipole_moment: 5.656
 S           0.41529293318461   -0.04886285126067   -0.79997922875584
O           0.03384135509690   -0.81463134857885   -2.06858734549542
O          -0.37011262666947   -0.61388024348361    0.31816939841156
O           1.83337219820257   -0.23554364481590   -0.56696930562215
O           0.08424829628519    1.36651789784940   -0.96931282777190
O          -2.45382584349917   -2.24355071980270   -0.05996536703119
H          -2.05664526368998   -3.09756663115729   -0.23896926710660
H          -1.71850816974112   -1.64894939405960    0.19185760942570
O           2.87590615685461   -1.43130802787135    1.51689426045439
H           2.51016170093028   -1.12132514711835    0.65306305146241
H           3.82841492812172   -1.44145998365301    1.41259677156317
O           1.78260829848408    2.28378188877715    0.77980023661565
H           2.59964967817148    1.98161433902376    0.37352506713107
H           1.09702407399257    2.09880399963194    0.09263919183069
O          -2.49939201315637    1.81132263113017   -1.20888366297083
H          -1.53601702876178    1.70497432715393   -1.04516370839833
H          -2.58301513070867    2.54174233665502   -1.82447651904736
O          -2.48008136474699   -0.65899531183364   -2.23816871652772
H          -0.98808503846368   -0.74878985073378   -2.20385923296596
H          -2.72188549456185   -1.27447452319820   -1.51510370635889
H          -2.66796986700283    0.24152860276228   -1.89162782219370
N           0.99888609593139    0.27764256729873    2.30510350165684
H           0.57267759819049    0.40896458704478    3.21571587387882
H           1.33660960994559    1.18397980829357    1.86695351331946
H           1.79512716404996   -0.39636409450397    2.31990299472070
H           0.31171778343064   -0.12517121341950    1.58484524979121
