    26
        -50.44166738  Gyration_radius:  2.513714147 Dipole_moment: 5.545
 S           1.63666380011445   -1.80738030506651   -0.31119139408540
O           0.55981560861803   -1.17431891773097   -1.03890081181650
O           2.81044077251923   -2.09128732414636   -1.05020274158725
O           1.96829572145898   -0.89372108541649    0.91421013658769
O           1.10903275654313   -3.06583357741967    0.40083027829542
H           0.23784741044561   -2.76631092582828    0.78757558131134
H           1.81696984804823    0.06977185883767    0.69980788775219
O           1.47781962729600    1.60448513538855    0.47325836010880
H           2.21513323265237    2.19108543809012    0.65312652388597
H           1.28828687367005    1.69028180535561   -0.51922275091951
O          -1.24058344598353    0.58117957671564   -2.16477400444406
H          -1.79200605696138    0.74364644029543   -1.36676886639600
H          -0.74473984686891   -0.22580004685405   -1.97376279066579
O           1.10294954197853    1.73849504219520   -2.05852081393373
H           1.61618848118827    1.03204281295820   -2.45781863880714
H           0.15375511586995    1.45823535349196   -2.17430181724164
O          -0.38828248734933    0.57129780274202    2.25592554321993
H           0.16999067415961    1.04006743794316    1.61296955158096
H           0.17963414278936    0.36110908600605    2.99975873926719
O          -1.04923108905469   -1.79427855128125    1.01070462790564
H          -0.91560396480518   -1.46017576449832    0.11103112304275
H          -0.88584879324105   -1.02204037835635    1.58606831424974
N          -2.68314286353083    0.80163408382213    0.17094742205563
H          -2.09783140094525    0.96032343651140    0.98321317891769
H          -3.16559671180960   -0.07775654524214    0.31334361756781
H          -3.37995694678873    1.53524812147782    0.14269374413334
