    26
        -50.45521620  Gyration_radius:  2.43499630209 Dipole_moment: 2.503
 S          -1.25519009494812   -0.18155127206349   -1.36397396257068
O           0.13830726839849   -0.13069720778336   -1.75025351522473
O          -1.95284899841716   -1.36604599334358   -1.73629345931978
O          -1.33638597453928    0.03855958168047    0.15931731069234
O          -1.98350779125544    1.06188236937282   -1.89763840103708
H          -1.32780788757338    1.80859024436666   -1.76232997369882
H          -0.66031082780705   -0.60401259932050    0.69066474387449
O           1.07906317421711    2.37535626086508    1.02907548961073
H           1.46052897304251    3.12856536354448    1.48248738411568
H           0.46135256385624    1.94335118898598    1.66890719977342
O           0.06129978364539    2.55924434031314   -1.50657880827096
H           0.53927229571469    1.80368177562459   -1.87517979656086
H           0.35073487627869    2.61563442528939   -0.57499173304682
O           2.12437424737661   -0.03490280968393    0.08693589289356
H           1.97722179929520    0.87000862695511    0.40500891342872
H           1.57753291506401   -0.12149782538236   -0.71409781448246
O          -0.58382731294201    1.06551299987226    2.64575211673340
H          -0.20704043295653    0.18277327644677    2.74367387692932
H          -1.32507206828078    0.95927173356030    2.03863163534000
O           0.29406331183012   -1.39796436819724    1.35737701165680
H           0.18612602356891   -2.22680614012958    0.80564587827766
H           1.12860925142732   -0.97441092177980    1.01652595662074
N          -0.12126827413409   -3.22186019445785   -0.49595837075022
H           0.68247838022174   -3.28769613144866   -1.10884459838898
H          -0.83957365893700   -2.70441419406455   -1.00243568878910
H          -0.46813156213670   -4.16057251924726   -0.34142725777398
