    26
        -50.45007688  Gyration_radius:  2.50587859105 Dipole_moment: 4.973
 S           0.75383365890831    2.30115436023853   -0.37998671841245
O          -0.66792322797252    2.33939109069673   -0.11524726413903
O           1.31722335774314    3.41342808364546   -1.04626344623675
O           1.51826395211747    2.06027334314810    0.93869649788353
O           1.03271410862048    0.97633115058429   -1.15677093243670
H           0.15205878927648    0.72633685920117   -1.60805953787946
H           1.13073690034051    1.27648237707185    1.42733179432198
O           0.45295400573723    0.10045188560530    2.25787676337136
H           0.61339391992068    0.23688533127627    3.19340894459358
H          -0.52404400748189    0.31183668795590    2.09917700722783
O          -1.94826177459865    0.73564221818051    1.60367010306305
H          -1.65247145896382    1.46576854065913    1.02701594974641
H          -2.21037297418849    0.01606930265049    1.00277632282768
O          -2.06997224882794   -1.30244718038460   -0.24312131387603
H          -1.21113179804070   -1.70278426470056    0.09234148331417
H          -2.66258132382301   -2.03648515937323   -0.40765776396807
O          -1.29771194764512    0.54019358327954   -2.02978987856386
H          -1.63636507112750   -0.19430894165400   -1.46943808341918
H          -1.58284376605352    1.35531791386876   -1.59415518774829
O           0.17832075791780   -2.21186366879837    0.67280668843771
H           0.87257197191017   -2.16059058339975   -0.02787068374952
H           0.41917669657259   -1.53589006411081    1.32222298314807
N           2.08327992585668   -1.78717264781617   -1.20701858930922
H           1.92942676943726   -2.17178243325391   -2.13048646901667
H           3.04499517743485   -1.97210615480100   -0.95131759004490
H           1.96472956688086   -0.78013164983901   -1.27014107913557
