    26
        -50.44869149  Gyration_radius:  2.50654161859 Dipole_moment: 6.084
 S           0.51737177047560   -0.64623692411898   -2.20174311610663
O          -0.88237197043533   -0.53990328242870   -1.82771039582923
O           0.87693968455286   -0.07539021814661   -3.44772626848855
O           1.33959655754878   -0.00426171388302   -1.03660361009848
O           0.93849598983259   -2.10588317813790   -2.09297529970369
H           0.47146795748077   -2.44461282082902   -1.20522936147771
H           1.13258552986991    1.00784660652935   -0.92133753393602
O           1.39403147855909    2.11277809966567    2.05420271893460
H           2.30844374991897    2.31848907840496    2.25205696848669
H           1.32183252256449    1.12988957531331    2.06035325944148
O          -1.67681074234979   -0.20038652791741    1.53811710793720
H          -1.81533678701807    0.43079065204946    0.80601603161824
H          -1.98255232858884    0.23853912739890    2.33393418054722
O          -1.88461399809803    1.49003500134483   -0.60607305878749
H          -2.64654597024850    1.81893304355555   -1.08555432927111
H          -1.53258223214710    0.72901066623970   -1.14084854983208
O           0.70167015656048    2.37216701123273   -0.51865972625734
H           0.95655949004347    2.42308725503044    0.43331405914759
H          -0.26900212189522    2.29844897625176   -0.52891250052390
O           1.02709245571142   -0.51383064815269    1.65887840023154
H           1.28863875375734   -0.45420022009579    0.72612416998060
H           0.05074950254925   -0.45201667828685    1.66389538720369
N          -0.26594347734110   -2.71514785732359    0.05701156074513
H           0.30354030729157   -2.52374539011952    0.87441000772261
H          -0.64604664924356   -3.64942280190190    0.12614463021948
H          -1.02720962936332   -2.04497685166187    0.02891527809357
