    26
        -50.45004695  Gyration_radius:  2.53818897275 Dipole_moment: 6.010
 S          -0.87780836987975   -2.23305045876556   -1.05478664966303
O          -1.38505872398938   -0.95000104765245   -0.61976110957211
O          -1.80446928700882   -3.15357154696008   -1.59368128718853
O           0.26358100425832   -1.98289458681129   -2.07509230125639
O          -0.15265400300272   -2.89358918108566    0.14808772158280
H           0.29644614355228   -2.20273805449291    0.71273282274928
H           0.64218880879909   -1.05989097001128   -2.01503340706979
O          -0.15851066428350    2.66537330793965    0.69101032771206
H          -0.05775246999047    3.60868996048425    0.55903284556642
H          -0.57556967867272    2.31204780339995   -0.13976196366063
O           1.37962190575351    0.35332970202108   -2.03587231620721
H           1.65633009301252    0.60343545881875   -1.09921342306142
H           2.18704882649055    0.26731395095890   -2.54522147846500
O           0.91496359276864   -1.15696684098802    1.75097507629559
H           1.14159798673522   -1.61386615478081    2.56248869072224
H           0.06668372776729   -0.60239398256613    1.93823906503302
O           1.97563548483942    0.99525336567144    0.39508026170120
H           1.75712501463486    0.20772363721478    0.91894572092413
H           1.28176508918955    1.65199780407897    0.60833889597957
O          -1.07878930246427    1.57449789533937   -1.53067199590935
H          -1.38218143569737    0.69932667352563   -1.22988063448944
H          -0.26864182864790    1.38607289735733   -2.02205049221270
N          -1.23724945659637    0.23936232723828    1.99097558627526
H          -1.63814956033597   -0.10886239979192    1.12208010840182
H          -1.00974864008052    1.21831546772443    1.84454740688676
H          -1.93640427715219    0.17508496213129    2.71849252892242
