    26
        -50.45192274  Gyration_radius:  2.49102052656 Dipole_moment: 5.219
 S          -0.76675854867131    1.14937060982203   -1.92307734233795
O          -1.82913302423678    1.23935410154510   -0.93794408806510
O          -0.77726405722378    2.12560614825051   -2.94749315491492
O           0.57635156886722    1.18020507638902   -1.13306726371333
O          -0.74615555866068   -0.25221444372243   -2.54181861001936
H          -0.73771093060263   -0.96939935711487   -1.81499626535954
H           0.37590852949423    1.67332178738531   -0.24924731916973
O           1.31180861016965   -1.64059886523930    1.05868260544107
H           1.99090624900200   -1.09335308045991    0.56671074563800
H           1.77183520369613   -2.39591525260408    1.42702034463431
O          -0.44468996431988    0.05882974765323    2.36111702753449
H           0.22606347884766   -0.55201757914893    2.01266462417778
H          -1.29087886877879   -0.23992009897172    1.99300602033418
O          -2.61605624111980   -0.58230066420295    0.74903928293530
H          -3.57280410779115   -0.62294714485912    0.77612013228791
H          -2.38449763894674    0.14159603227339    0.11602586782960
O          -0.15256774158296    2.28390894224662    0.99781116390137
H          -0.20542620608657    1.51509579644066    1.63155619279845
H          -1.05477076903633    2.43283766432762    0.69244987711165
O          -0.75988217781369   -1.96706698084501   -0.66410702159146
H           0.03064792804460   -1.89032783291106   -0.09201977110392
H          -1.51151907816305   -1.68093633839859   -0.11357029444153
N           3.02863641951462   -0.16625244868448   -0.32664683229735
H           2.32160703688710    0.38608751539922   -0.80633855869838
H           3.60657619769706   -0.60768228570999   -1.03094518912354
H           3.60977370081308    0.47471895114062    0.19906781620816
