    26
        -50.45089563  Gyration_radius:  2.49553096368 Dipole_moment: 1.426
 S          -1.16243012629062   -0.44393406147033    0.87840373450583
O           0.22650876323704   -0.48539300725532    1.27254365608613
O          -2.08013860487492   -0.13668502718775    1.92579304868200
O          -1.30727257168137    0.60194279990345   -0.26118095491565
O          -1.54409721580148   -1.76239576873464    0.20882608870664
H          -1.55802419161520   -1.66568212261677   -0.82762170368158
H          -0.36998408075357    0.93280120553593   -0.49465406658709
O          -1.52248330035001   -1.36238176249766   -2.26845185013137
H          -1.98105728660179   -0.52332406052858   -2.36314909435295
H          -0.55566945094337   -1.17979150199679   -2.47017337679948
O           0.58862214713215    3.37752062130113    0.94492319821854
H           0.18924371134188    2.89257160317538    1.70032934387221
H          -0.06820937018503    4.01411214432499    0.65902612703230
O           1.00680158027264   -0.80344505498677   -2.48459552810678
H           1.19811772262603    0.05641577184670   -2.09158191349760
H           1.31996990612807   -1.47320886948278   -1.82697605819902
O          -0.52324279084252    1.84396938550210    2.85634681821292
H           0.16296788455017    1.29300975982235    3.24015730007039
H          -1.23451088684569    1.22849367160647    2.60519070129550
O           1.11331606054687    1.27391420005066   -0.53651181400564
H           1.29441731386859    0.63986456078199    0.17665152531600
H           1.07504522137262    2.15846331001800   -0.09227976062981
N           1.45839254778213   -2.47968854177734   -0.42541357887035
H           1.09325982503905   -1.89114937725932    0.32075264938972
H           2.35564550315078   -2.84177744665761   -0.12770499867619
H           0.82481169984080   -3.26422240132267   -0.51864950286052
