    26
        -50.44727645  Gyration_radius:  2.46749739053 Dipole_moment: 3.883
 S          -0.07738695921119    1.96665899548426    1.19275093993974
O           0.26564214002888    2.72599996441927    0.02389565687291
O          -0.62770851532891    2.63399904196868    2.31165509801279
O          -1.06379691454981    0.83330201606114    0.74489953917469
O           1.15899960959114    1.16644732668440    1.67274800517655
H           1.56422458624230    0.66331160218524    0.89804073229739
H          -1.17195821532908    0.81886050181318   -0.26007722538469
O          -1.32937579544046    0.82413572210503   -1.80634193625919
H          -1.81722905416607    1.61738665452711   -2.03808460598792
H          -0.37938715965386    0.99969994793541   -2.08464590081713
O           0.70975060890298   -2.25194267338356    0.46831128823556
H          -0.08099677842739   -2.28399177367228   -0.12634692552402
H           0.35823050111430   -1.98664507907901    1.34051600066061
O          -0.38182601200970   -1.04272963001305    2.66653314301358
H          -0.85156466205441   -0.39668011906864    2.12202069199089
H           0.23829243443036   -0.53473054181866    3.19501917896168
O           1.15367280255889    1.45596106491052   -2.15680368881007
H           1.01529252626142    2.15037618907667   -1.48618426789765
H           1.64816125530575    0.76092543848850   -1.69559500779851
O           2.11442058933320   -0.26004825930332   -0.22270282992707
H           3.02767376823256   -0.49329151221819   -0.04597452993394
H           1.56333528627076   -1.10090342777125   -0.00498281351075
N          -1.52501180045410   -2.11209486143012   -1.04518579655718
H          -2.31563104257078   -2.16211556161174   -0.41482720979987
H          -1.66320753322561   -2.79933836371116   -1.77507415125505
H          -1.53261565584652   -1.19255267257726   -1.47356336488521
