    26
        -50.44395404  Gyration_radius:  2.51042449939 Dipole_moment: 3.725
 S           1.70840541271743   -0.20135399611604   -1.47033231974382
O           1.85026573200823   -1.09819302359766   -0.34358664674779
O           2.10473277828051   -0.70801902267039   -2.73184648080813
O           0.23313238124172    0.28732221599449   -1.50628989779264
O           2.43669935595038    1.11529082691265   -1.15862932785445
H           2.03687822660860    1.45357636437477   -0.30276210650014
H          -0.40415716377191   -0.48858026764316   -1.54982273823998
O          -0.40824372433538   -1.76864572132625    1.00428453459597
H           0.41037312882991   -1.64241624970093    0.49258178557078
H          -1.04404079248842   -2.11423648818630    0.37118016613739
O           1.88875675015116   -0.43135617992018    2.26852258989644
H           1.08207991771969   -0.90217992919247    2.50439540104979
H           2.15022465613390   -0.81328410627259    1.41140144272772
O          -3.02831751843526    0.50704043400343   -1.03463255206476
H          -2.54695484309977    0.70613786092897   -0.17578380286981
H          -2.75948491380755    1.19964230776307   -1.64102489147981
O           1.46785815717088    1.87823574913742    1.11107987354945
H           2.06689333755174    2.53006485924322    1.48140066025689
H           1.59673055541815    1.04457186748699    1.64528567235448
O          -1.56388117321633   -1.55177319776577   -1.62724395981137
H          -1.72227574345605   -1.82371849076747   -2.53306936574111
H          -2.25836360743834   -0.86329368977160   -1.40085637224159
N          -1.51727639028269    0.93040018575901    1.10057866358884
H          -1.89434495757046    1.26346681959380    1.97836779338813
H          -0.71952755834322    1.50760929725943    0.85983503970595
H          -1.16616202352149   -0.01630842550997    1.24696683907066
