    26
        -50.45304857  Gyration_radius:  2.55928047669 Dipole_moment: 2.481
 S           0.16803172470668    0.63822768321169   -0.64485968053877
O          -0.61714131261276   -0.53291195518248   -0.29204870147522
O          -0.61206595232657    1.69769898018363   -1.20337381501728
O           0.93280258210978    1.09837867362941    0.59488758259794
O           1.27408302232423    0.23113411931578   -1.60893462799855
H           2.00496550607110   -0.21941808773172   -1.02496947054527
H           0.26305995659091    1.56989163260514    1.30444899428848
O          -0.71848658638218    2.12202202550810    2.11547806666565
H          -1.05257456277387    2.87508550574176    1.56783458195303
H          -1.43153043964264    1.44225765775828    2.08766788977757
O          -1.64464947876494    3.71494533088714    0.22171447327524
H          -1.24863894790216    3.10899065425446   -0.43399228475597
H          -2.59151231157413    3.68894130338680    0.06933835721737
O          -2.40643949511667    0.14692040796863    1.56016930194888
H          -2.52830342430690   -0.61864706405721    2.12527933494698
H          -1.86713888979631   -0.15262350726273    0.80116827228240
O           2.88261008562857   -0.83168825314502   -0.00700762829943
H           2.89993508817815   -0.16816159686077    0.68940022356988
H           2.29112456495358   -1.57078802865284    0.32314738561716
O           0.99766508115792   -2.50382975037773    0.62737706288953
H           0.96039742973466   -3.03970967270397   -0.18590975226820
H           0.30817924916584   -1.83280386308637    0.47985390756119
N           0.51514189445561   -2.84716759892197   -2.05981826199508
H          -0.15502326442045   -2.11039759476765   -1.86179045813772
H           0.08087840518945   -3.49479186627172   -2.70611397267707
H           1.29463005544511   -2.41155514545144   -2.53894678092250
