    26
        -50.44774004  Gyration_radius:  2.69853327966 Dipole_moment: 5.957
 S          -1.01884487034661   -1.46825291913266   -1.34092104698300
O          -1.38895519492868   -1.95826649676669   -0.05089288305405
O          -1.67777098229821   -1.99998038339589   -2.48769142904455
O          -1.20687719124583    0.08906584989722   -1.31844125202517
O           0.50463991852027   -1.60877348406669   -1.55285971244582
H           0.98230844534628   -1.31921409231305   -0.69689647177035
H          -1.08797733476801    0.35845207330898   -2.30347419772361
O          -1.17357500164267    1.54059082609854    1.09351918240709
H          -1.34371786541326    1.15545077985063    0.22383367905064
H          -0.25321267157718    1.85165260850815    1.07914011723729
O          -0.58224699825247   -0.79789295793192    2.24266658159316
H          -1.03878006320942   -1.42378704937076    1.65736293304158
H          -0.95044128588687    0.08029250813800    1.98713720773165
O           1.53436731008965   -0.77293175767633    0.60787389807198
H           0.79640380427945   -0.88086322588550    1.25882306686268
H           1.69286016826758    0.18214780195397    0.56235397017446
O           1.56206150731612    0.38051051323010    3.53524152679082
H           0.71501219719501   -0.06662706862271    3.37534422608741
H           2.23518299347052   -0.30020078885284    3.46544580634926
O           1.57920660827736    1.91773615488958    1.33452025673433
H           2.01573294303694    2.76208780809300    1.45064413919650
H           1.59921825718207    1.46866248868657    2.21335054341914
N          -0.88807797763542    0.29688963360247   -3.84243046342253
H          -1.47048141452612    0.85033495618554   -4.45690153857842
H          -1.20278612514815   -0.67193901653630   -3.86291809606999
H           0.06675079397999    0.33485526813004   -4.17383006357280
