    26
        -50.46564189  Gyration_radius:  2.42007589984 Dipole_moment: 2.437
 S           0.57689992228728    0.30766241986673   -1.11973488501632
O           1.51803192927121    0.26764445393488   -2.34507268377008
O          -0.72467577328871    0.81067893613740   -1.52475810255848
O           0.46293939502740   -1.07157936863392   -0.61647242215562
O           1.21046584100204    1.16039076800627   -0.12098957993280
O          -2.30568289557762    0.88152234660687    0.56558917698351
H          -1.85690974828944    0.93996431013659   -0.31118192766919
H          -1.82014258179413    1.50040023334084    1.13697554740760
O          -1.22518917932238   -1.29111892543027    1.22170139153013
H          -1.82316295065807   -0.46021426996108    0.99906419564468
H          -0.54484409288184   -1.31013277715832    0.43856795169665
O           2.36050282878042   -0.67363721143675    1.44212036816670
H           2.12686308511584    0.08718386272826    0.87498065705628
H           2.17814808472770   -1.44249964470800    0.89401931523454
O          -0.20902428690555    2.08451359452875    1.86950049745142
H           0.07807540499515    2.96873992929698    2.10162757399597
H           0.34558372305401    1.80944905382480    1.09797245933558
O           0.25368560895825   -0.36146028786150    3.00656284621422
H          -0.64327771565692   -0.98858581967921    2.06670460790713
H           1.14134164473857   -0.53120146362714    2.59938232880515
H           0.08416141116085    0.58797115850605    2.86327756165403
N          -0.30105904790130   -1.14564949266248   -3.53958226160211
H          -0.32140248037002   -2.03323009410159   -3.05441032223236
H           0.99443047669453   -0.29289025262214   -2.98768126005276
H          -0.61191022382297   -1.28642189095745   -4.49212147818928
H          -0.94384836932402   -0.51749955806826   -3.06604157591998
