    26
        -50.45374070  Gyration_radius:  2.48255536685 Dipole_moment: 3.157
 S          -1.11540089476720   -0.06495280890399    0.99459652622210
O          -1.33295624555073    1.17692019124434    0.29771497492505
O          -2.27039144181454   -0.90554337854541    1.10284241856987
O           0.01340741297756   -0.84293002910952    0.24375625355238
O          -0.49716272594234    0.17072527948877    2.34960329253952
H           0.40474020477883    0.72857818657284    2.19166910417601
H          -0.26128744735058   -0.91608050048694   -0.75256518869417
O           1.82713870293000    1.27649252450546   -0.79508059625031
H           1.11986213583612    1.67096185773067   -1.32909947017459
H           1.72320827301941    0.32541883817103   -0.88430300598987
O          -0.55417085981423    1.85146979556243   -2.08752344672880
H          -0.91389595053901    1.69295762122155   -1.18191417282739
H          -1.05176049084354    2.58509464764216   -2.45131299842366
O          -3.24094542739421   -1.16666475633821   -1.35512181450086
H          -3.01599016908453   -1.02039346272064   -0.41241348893420
H          -3.72995031578648   -1.99121223309523   -1.38703471433257
O           1.66250361750815    1.28727873753996    1.88656791491830
H           1.69930959908905    1.48033547525147    0.92213735121457
H           2.21212086230234    0.47152803067979    1.99369909016777
O          -0.73052776225651   -0.86532262213584   -2.15711596548066
H          -0.65045852251548    0.07698203882644   -2.39677753485001
H          -1.69522651971688   -1.02707306613258   -2.03860611301501
N           2.61151143235965   -1.23082952750381    1.84620717762495
H           3.43117425357811   -1.56136829258939    1.35301995667675
H           1.78953285243607   -1.49224293394387    1.31079745218795
H           2.56561544656711   -1.71012960293183    2.73625700742601
