    26
        -50.47304508  Gyration_radius:  2.41245605335 Dipole_moment: 4.408
 S          -0.60919845888119   -0.99574708776479    0.79151304518685
O          -0.71985060862361   -0.37238494030330   -0.53652527443071
O           0.07723148127262   -2.27514938790334    0.69803504999865
O           0.05593023175672   -0.08727843311537    1.71967166035315
O          -2.03795127045887   -1.27594309253903    1.29650776889212
H          -2.54261964991105   -0.41917938491247    1.17180097679675
H           1.40384591178404   -2.04775033629406   -0.03138545708257
O           2.26107029536591    0.69508906080333    0.48131826291248
H           1.55861828108120    0.45126366608290    1.12329017489226
H           1.82743852901693    1.34387677338413   -0.10067543405918
O          -0.99503999538427    2.33458372329327    1.44402488175706
H          -0.54828738720446    1.50522815656755    1.71321074014978
H          -0.56640028288215    2.58402504719665    0.61380604844997
O           0.48742147591865   -1.31816451415256   -2.66467785075308
H          -0.05742694044943   -0.93709958673346   -1.93403155687899
H          -0.02042923438469   -2.05427260846548   -3.00920365212433
O           0.34646745125538    1.97345291833090   -1.00353490669459
H           0.24139100025910    2.16493285745239   -1.93635126086202
H          -0.11925555587019    1.11689055170868   -0.84594013463021
O          -3.21953130067730    1.00645093868302    1.08268085964395
H          -3.76402888438080    1.15285528001324    1.85918131042157
H          -2.44058139141965    1.62135744528370    1.17260472558338
N           2.19518530826630   -1.66047621401645   -0.64061518164892
H           1.78094437124652   -1.57574547218235   -1.59586476820003
H           3.01986926085268   -2.24982949246494   -0.62207818240190
H           2.38518735245824   -0.68098587781497   -0.24676184521547
