    26
        -50.44624758  Gyration_radius:  2.59927888194 Dipole_moment: 6.993
 S          -2.94046888981772    0.34974822565783   -0.15136246958780
O          -2.10921094758108    1.50768983760248    0.08099236495979
O          -4.28051885348019    0.57653446389561   -0.54016555703458
O          -2.21047108098308   -0.56247781840568   -1.17512131664243
O          -2.92671432129806   -0.52585077929138    1.13155826232999
H          -1.97573108258785   -0.67644719144060    1.35698712534277
H          -1.35996198252051   -0.13719218694134   -1.53567382950182
O          -0.41367167015813   -1.02954752168873    1.65997015800791
H          -0.36292233297324   -1.45326939597263    2.51859400420598
H           0.26806560557253   -0.27251996458528    1.68423610769256
O           0.29790019038655    2.42615822578531   -0.23866857297866
H           0.25986690204648    3.35481833679120   -0.47151893500446
H          -0.63213725283109    2.15379588648561   -0.05350394263052
O           0.49429248785922   -2.08954488778412   -0.68463825956520
H          -0.24810805221041   -2.49105403308696   -1.14180841538491
H           0.15140485509831   -1.80899302794554    0.18593840242552
O           1.41855217294367    0.75414826360673    1.61191214976508
H           1.08002865392192    1.49874016703756    1.08835975194741
H           2.08519103142535    0.31358456238091    1.03050658825780
O           0.07027641924725    0.29251073878105   -1.93954598364993
H           0.30420524485784    1.06679291660559   -1.39548095985537
H           0.50284897991424   -0.48677225327458   -1.54181520982296
N           3.00826224709164   -0.53598725265178   -0.18100351882734
H           3.88572866851513   -0.90099525256997    0.16668758960510
H           3.20562650006160    0.00058051953883   -1.01681383241431
H           2.42766649750122   -1.32445056852678   -0.44862168163818
