    26
        -50.46167348  Gyration_radius:  2.39914931415 Dipole_moment: 4.195
 S           1.26491101886816    0.82243513863435    1.06872593090685
O           0.78139455504674    1.73982096192418    0.03376596578965
O           0.82645022805473    1.18371074161856    2.38871747671193
O           0.58375519709654   -0.58327083422011    0.71967983477390
O           2.68320818639014    0.54043279875254    0.91719734703850
H           2.74321313889918   -0.39298168679421   -0.23871264475134
H          -0.31158693948390   -0.50652157139122    1.11244122040933
O          -2.06673079878793   -2.15720673426710    0.60907995028484
H          -1.39933920362890   -2.75519424432997    0.94825919252144
H          -2.17701090536768   -1.46179559926099    1.27421090652102
O           0.77855432548735    0.36398508286687   -2.20994558432618
H           0.80583068838500    1.04012690004574   -1.49603426618588
H          -0.11863713189921   -0.04323773092078   -2.11383248598898
O          -1.65625945053400   -0.46665059316473   -1.57417319222880
H          -1.92525255147306    0.35054255167189   -1.12776867709990
H          -1.81159818377070   -1.17773451360544   -0.93082206362227
O          -1.81896071124396    1.87547121989086   -0.01573087944607
H          -0.82867330723392    1.90542262310449   -0.00196384433962
H          -2.11214870354188    2.76691562273083   -0.20845917465990
O          -1.58482988653164    0.15596120589092    2.06921347089029
H          -0.83712520214588    0.60341628275514    2.51254285283365
H          -1.94612310600161    0.81751615439446    1.45287209673230
N           2.60160982487969   -1.03522297517998   -1.10045098505105
H           2.25108606613145   -1.93145057476847   -0.77759220175477
H           3.46141461590986   -1.14307019762166   -1.62844495297357
H           1.81284824653496   -0.51142001846669   -1.68277528304520
