    26
        -50.44359107  Gyration_radius:  2.68285111966 Dipole_moment: 6.779
 S          -1.88605524572574    2.14533228224739   -0.02472998110130
O          -2.38137342751010    0.87650110595651    0.45725287363781
O          -2.36248196436120    3.30909546302729    0.62782076287869
O          -0.31963735152051    2.09442554130371    0.05000233914584
O          -2.08006829493961    2.23434874566802   -1.54188141899118
H          -1.84712787398481    1.30433276532141   -1.86552094000442
H           0.00637525878991    1.87177465423286    0.96039697031784
O          -0.67586920083912   -0.83115660680962    1.63455053141547
H          -1.42615118964145   -0.29658613034641    1.31282304076714
H          -0.16823499919644   -0.24169364814059    2.20444625481114
O           2.46627580788874    0.91340989928217    0.22534232615610
H           1.92045112409849    0.18491186747335   -0.15179831746551
H           2.27722998548776    1.67282902482852   -0.33072675441729
O           0.70717756178736   -0.90654546788216   -0.63070858452276
H           0.96686815055802   -1.83156405240739   -0.83948224438452
H           0.22262823830264   -0.95945799366029    0.23017937666425
O           0.90367595234515    1.42453883820166    2.26419413311382
H           1.63473291610315    1.17579443911940    1.63294242512331
H           1.21576793329213    2.17300650904357    2.77551948887425
O          -1.55461694801439   -0.23042003382308   -1.89557852033052
H          -2.12229338055186   -0.38846831924587   -1.12980514571474
H          -0.64147007752605   -0.43051138849732   -1.57973457408848
N           1.25487431959636   -3.54942355640733   -1.06809468694731
H           0.82321725666890   -4.04687558649212   -0.29892569277519
H           2.23643109865729   -3.79541710461407   -1.09028112461734
H           0.82967433017158   -3.87218126739843   -1.92820254750486
