    26
        -50.46322930  Gyration_radius:  2.39969750226 Dipole_moment: 6.337
 S          -1.30019223747435   -0.27227887618880    0.08760432668338
O          -2.18674344418038    0.28792199746769    1.07798586533150
O          -1.50802509464315    0.29790381720447   -1.24852377291505
O           0.17429113282921    0.17073582187521    0.49184872635268
O          -1.23019236578611   -1.71862560558528    0.06555232551341
H           0.28953123895077   -2.10953051802195   -0.63889953124573
H           0.33980500753180    1.10656153786891    0.23925205960816
O           2.17737510470020   -1.79158502326997    1.56000002300623
H           1.31522189266068   -1.56235736671081    1.96589681079762
H           2.41775119236708   -2.64111305657765    1.93544792786190
O          -2.05185928412930    2.70996630862966    0.01920917773390
H          -2.49381118129738    2.52136601918883   -0.81304490523892
H          -2.18041841373159    1.88944743448948    0.54604387829294
O          -0.35419768376824   -1.61158228225146    2.58615791982567
H          -0.80617904904386   -0.80382616326809    2.84037855705053
H          -0.74982247638842   -1.84792173608844    1.72848815337680
O           0.53181341484121    2.61173110694176   -0.43049334401582
H          -0.44891584884769    2.76644452726582   -0.34387758409648
H           0.94458982242524    3.21214288830084    0.19369929102124
O           1.22429985486223   -2.04047207049294   -0.92870576565160
H           1.16048451130248   -0.76370846302838   -1.68555969485464
H           1.71391110964284   -1.91074619771618   -0.08020452342646
N           0.86433507190364    0.16422320865310   -2.20292342676098
H          -0.18259344259515    0.25119086360784   -1.95103186896691
H           1.00734444285969    0.10516318936270   -3.20557282912419
H           1.33219671497907    0.97894863835667   -1.80872780615454
