    26
        -50.43883762  Gyration_radius:  2.53238004986 Dipole_moment: 7.802
 S          -0.58980492240778   -2.39554744580760    0.31559264741816
O          -0.31359769675370   -1.45356677644848   -0.73608468711675
O          -0.01164453002217   -3.68240199329466    0.19574356443665
O          -0.15570535847565   -1.70780429377490    1.66569384818599
O          -2.11294127674578   -2.50619647459436    0.52154730758081
H          -2.40461589076519   -1.57985192450910    0.75449452079626
H           0.74389621289374   -1.30587106069124    1.50650228825083
O           1.11918435542017    1.99196722512760    0.92165467082319
H           0.26563494119196    1.93120013384412    0.43939891694730
H           0.95639343073849    2.54509937393502    1.68748262696751
O          -1.30972293008688    1.84765843152774   -0.23709498659772
H          -1.14497055756225    1.36590214864378   -1.11718552583363
H          -1.85703282026013    2.60438671046793   -0.45248254312078
O           2.08025834819590   -0.48412720178101    1.25921992281832
H           1.77193691955415    0.43720407242931    1.09382805517344
H           2.66125994155868   -0.45684321798962    2.02214937512906
O          -0.83914184881204    0.59034280046086   -2.41967539185185
H          -0.88336419974360   -0.29912540292014   -2.03419554869872
H           0.12933027761785    0.73598699026372   -2.50098274297724
O          -2.39671630760665   -0.07137392712030    1.32369538931818
H          -1.68918463750256   -0.24635559361776    1.95241059322145
H          -2.05332653850678    0.61178366541323    0.70733329339123
N           1.81043187686398    0.48647191524750   -1.87897660093706
H           2.11817068457373    1.16269423161952   -1.19063509267042
H           2.61657941282492    0.21309794932984   -2.42629650899256
H           1.48869310381385   -0.33473035576194   -1.37313739165361
