    26
        -50.44183753  Gyration_radius:  2.59100362542 Dipole_moment: 6.975
 S           0.70343835830490    1.50338287621206   -1.73347518463659
O           0.43693112871648    0.08675383548984   -1.86128685117812
O          -0.13208342722163    2.35917723801926   -2.49672572998986
O           0.59567107047944    1.86292753065842   -0.21273350214761
O           2.17737620372895    1.77788996778816   -2.00579232032652
H           2.73073801238024    1.13740713822752   -1.42850305547457
H          -0.34595789593551    1.75766619971385    0.07795110499810
O           3.45399996061203    0.07394398379431   -0.62060975428951
H           3.70391462613333   -0.61011482804079   -1.24584190775771
H           2.74107524087779   -0.33134435546612   -0.03376692950775
O          -1.25798269352434   -0.32725827175367    2.50391120262836
H          -1.24652418442387   -1.13011701552619    1.92834788222941
H          -1.85047104322532   -0.52219078459823    3.23132574193090
O          -2.02774507680721   -0.68542320795091   -1.16825309864539
H          -1.17927306891842   -0.48212479215428   -1.60621287998898
H          -2.29270052577277    0.13752542945996   -0.74154976531721
O          -1.40442496102907   -2.35165791591684    0.78797545731036
H          -1.61482391024340   -1.79268651812203   -0.00515249172915
H          -2.06452600546405   -3.04574720387062    0.80034243159793
O          -1.83827626995187    1.49589318097229    0.67406435315913
H          -1.63275473224753    0.85636661531913    1.40340977697335
H          -2.12814288753904    2.31203328767922    1.08576805443894
N           1.38767587342058   -0.96965016946723    0.62609397798738
H           0.83887771117585   -0.78150871427685   -0.21050841821605
H           1.01370764854728   -0.39412770826145    1.37027307762753
H           1.23228082791454   -1.93701579791997    0.88094883832370
