    26
        -50.45177941  Gyration_radius:  2.55483923125 Dipole_moment: 3.235
 S          -1.52866556028255    1.13197143478543    0.48238571145087
O          -0.55193565218213    0.13323537207350    0.91634499098385
O          -1.22495464864369    2.44776892246159    0.93023619098226
O          -1.64647544247193    1.05092078177582   -1.03994658999125
O          -2.91454569102714    0.71542969928935    0.96281145940507
H          -3.18780667190247   -0.15267373874378    0.50446120443931
H          -0.71132097552288    1.14618457459945   -1.49133405222817
O          -1.16501924630228   -2.49486000266319    0.62120093304197
H          -0.91820237777392   -1.61527829748163    0.95855154111797
H          -0.53239680603634   -2.68275582402964   -0.08088643488554
O           1.15571818752376   -1.20671678388140   -0.82776795185175
H           2.08109050593318   -1.03108739391745   -0.54320457286968
H           0.60566838094486   -0.81325880748507   -0.13367278028984
O          -3.51448257048241   -1.53769228911940   -0.05914366254308
H          -4.19805970239673   -1.95255932226725    0.47209958789842
H          -2.67498124163101   -2.03636044115699    0.11697599686088
O           1.45398828338520    1.96122068899097    0.59892388533626
H           0.97803777799520    2.77143607870019    0.80867593538273
H           0.86826332517476    1.25798662831301    0.92371862044902
O           0.70229488710132    1.17389593313030   -1.90623239938132
H           1.14690633593465    1.62936113500146   -1.16424581619820
H           0.93259989541556    0.22002244525257   -1.78948651516349
N           3.51935967533706   -0.19609006660950    0.08336096723675
H           3.96704388069583   -0.60748553915141    0.89253391249826
H           3.12084867705192    0.69344804873249    0.36839905769924
H           4.23702680419712   -0.00606322662001   -0.60475923943679
