    26
        -50.45007688  Gyration_radius:  2.50577103401 Dipole_moment: 4.975
 S           0.83725963559314    1.13379308707923    2.00541275903014
O           0.56018098530675    2.14517677514333    1.00881915880858
O           0.90110789103866    1.55552364801439    3.35324555620704
O          -0.22783088713017    0.00875725882960    1.81522372844763
O           2.14305212489531    0.39575131892079    1.64276732920251
H           2.11521397823749    0.09022130816335    0.68923342744645
H          -1.02745916413466    0.45498391921953    1.36437606973047
O          -0.21451076218917   -1.72660778853040   -1.53066814766185
H           0.68391535888673   -1.42796258988198   -1.32991628480788
H          -0.53933741584489   -2.15472001247878   -0.70191892260852
O          -1.98437424400823    1.34327571003144    0.58379303048567
H          -1.40510153830562    2.11483884374159    0.65221385505637
H          -1.91458036973355    1.03923558496440   -0.34943127305912
O          -1.45734096136670    0.51638126769976   -1.91055820029085
H          -1.01496040732870   -0.37803819721983   -1.78881067670193
H          -2.09428871164986    0.40739351639386   -2.61729648171002
O           2.12053544017817   -0.30330618808422   -0.85243450237918
H           1.71238353138089    0.53308769747358   -1.25041466310008
H           3.02522671647589   -0.34230471925500   -1.16803104114417
O           0.93811571168516    1.84234941215208   -1.62389153275921
H           0.05632336922840    1.52545195741900   -1.88769819343294
H           0.83645620882873    2.17499507710899   -0.71167923599524
N          -0.96177257865733   -2.70010492448576    0.88529225402064
H          -0.47060906524482   -3.51245913061890    1.23665209773889
H          -1.95009358720313   -2.83960718057248    1.05340127982621
H          -0.66751124892273   -1.89610565121847    1.43231858965643
