    26
        -50.45230161  Gyration_radius:  2.46682422173 Dipole_moment: 4.294
 S          -0.70570230243270   -1.87501163938929   -1.10834346491509
O          -1.37256097402645   -1.07389857412532   -0.09331918785060
O          -0.39219356383657   -3.20040126072206   -0.71791489297669
O          -1.60171548153061   -1.87543023895919   -2.36870536292253
O           0.56700894091610   -1.14746635521762   -1.53678433114746
H           0.56782244731077   -0.08939450061165   -1.42167678479750
H          -1.80868653556212   -0.92346313165150   -2.54471592509555
O          -1.35566094845273    1.50951451124457    0.52689976348729
H          -1.55929151424913    0.56569789954249    0.39198169123593
H          -0.88297077379376    1.53234676314248    1.37897795829179
O           0.62506843142275    1.31788677004717   -1.18803976932737
H          -0.11832598737941    1.52557522157207   -0.55875198063518
H           1.42938612548167    1.30152998403043   -0.59304940140096
O           0.69493327562938   -1.52064357806121    1.53220406173087
H           0.92344633527050   -2.44692385404960    1.42768214782343
H          -0.10850612303093   -1.40235691429423    0.99479868749167
O           0.09747748924177    0.89741199897917    2.79639748566544
H           0.38065358632630    0.02988450505572    2.46423114181711
H          -0.44332625799133    0.72758307350567    3.56940765416711
O          -1.84351377106709    0.73783871878948   -2.48592723684854
H          -0.96081214714323    1.12758660598996   -2.52642401243278
H          -2.24028224897892    1.06125079398717   -1.66983012946533
N           2.41245387065102    0.90322443902213    0.70535696864429
H           2.13565798739966   -0.05905405256230    0.88047469259948
H           2.13925695390490    1.44352543143277    1.51806851947910
H           3.42038316591491    0.93318737329010    0.62700171738904
