    26
        -50.46220849  Gyration_radius:  2.4226137559 Dipole_moment: 2.970
 S           0.64520845936566    0.00856240154014   -1.07650570195214
O          -0.59556112481300    0.73077316607247   -1.32122906377410
O           1.61336044345520    0.82326238736247   -0.35477305376448
O           0.37149073929009   -1.23826914332930   -0.34703062482265
O           1.28427626068670   -0.36968115068750   -2.43113429495917
H           0.52799618579299   -0.80472232348252   -2.92087309759992
H           0.65214916835448   -1.27329980190450    1.10961474560843
O           0.77003676068989   -1.12222678809189    2.12741318704406
H          -0.07043163087481   -0.45497194988325    2.38086282657931
H           1.61366081540842   -0.55649886306589    2.21132260868296
O          -2.25944658175090   -0.53653289692312    0.29562719811264
H          -1.75340857939748    0.01955794743153   -0.33598311391774
H          -1.83159892172805   -1.39677468037681    0.24504338310748
O          -1.10772401843846    0.45568771843023    2.45160450016938
H          -1.73875668031440    0.10563327723969    1.77220034403807
H          -0.74257864191208    1.28401643433919    2.05042369078262
O           2.72830720029777    0.52128237244105    2.00390718116325
H           2.53241256725383    0.65243835903788    1.04968370926039
H           2.55532459435535    1.36630946958858    2.42674623739049
O          -0.04590075460283    2.38852867581951    0.98857920522639
H          -0.71390489267094    2.63900877513888    0.34551997005425
H           0.62664932798915    1.90606834368614    0.46399241646148
N          -1.00421720201934   -1.26997745977325   -3.29233641686650
H          -1.38954771477816   -0.49916854436641   -2.75429959328433
H          -1.28616179095364   -2.13872372745499   -2.85798024920543
H          -1.38163400875431   -1.24028200871791   -4.23039599352811
