    26
        -50.46558905  Gyration_radius:  2.39100017789 Dipole_moment: 5.419
 S           0.41340934959006    1.68311800243115    0.18599120683715
O           0.14024585422139    0.57119609403349    1.09805168585658
O           1.45344652479336    2.54961299384299    0.67745461315033
O           0.99489977651864    0.96396406876093   -1.13942345784968
O          -0.79689508069788    2.32247878488036   -0.27121503988987
H          -2.22225915730731    1.48333018767555   -0.45172280090725
H           1.54986618488365    0.23755666606569   -0.76843837434962
O           2.76558280339773    0.67396860918516    1.91029809533905
H           2.15464283146862    0.48313755298581    2.62596426426758
H           2.37941399951076    1.47222512582994    1.46833428486852
O          -2.86528687848190    0.75264670747664   -0.62617007377636
H          -2.82999548627146    0.18515614769368    0.16332091181929
H          -1.95249940133416   -0.00772266012875   -1.57596737630431
O          -0.23743891883718   -2.28324846752081   -0.35387962565724
H          -0.84377249554251   -2.02215648055947    0.36242835836092
H           0.63296522724334   -1.93030112296549   -0.10995788827514
O           2.29774881179198   -1.00891413813222   -0.00930497924530
H           3.15218543367537   -1.25639720258622   -0.36825886209161
H           2.48773867667306   -0.44964937893122    0.80251584526371
O          -1.92488251140673   -0.90818550164468    1.34531763708966
H          -2.13419357966320   -0.99510860602171    2.27573300215060
H          -1.14367243207873   -0.28816614154418    1.29222822862858
N          -1.09068500756889   -0.45980591938133   -2.05918437562498
H          -0.80335741014098   -1.31750534366714   -1.49783808745010
H          -0.31490433842028    0.22274342167009   -1.94130082637348
H          -1.26230278601027   -0.67397341944923   -3.03497636582335
