    26
        -50.45120962  Gyration_radius:  2.54172051883 Dipole_moment: 5.922
 S          -0.97226260892657   -0.37823838730673   -0.75681714722171
O           0.36720973234483   -0.77376007318186   -0.39524668574613
O          -1.98226953782210   -0.86103706571473    0.13448930370742
O          -1.02123540637059    1.16357574379321   -0.86874452530812
O          -1.29666720152422   -0.80675017478237   -2.18115655217208
H          -0.72907393701004   -0.22690895623506   -2.81642407778142
H          -0.51424117235291    1.59413814968642   -0.08704780796970
O           0.46695774451980   -1.73104301161055    3.27954634282013
H           1.40786837927761   -1.59286748952034    3.16075512855688
H           0.18974667978497   -2.34100275128573    2.56071650102210
O           0.09020014333831    0.81194770156564   -3.53551260607822
H           0.87798915330829    0.96568183501291   -2.92624936718406
H          -0.44543599215306    1.60743582700506   -3.48402793044166
O          -1.07790299781750    0.30196834005988    2.45916801774999
H          -1.57531386208952   -0.14964822529337    1.75992278643081
H          -0.53047057486661   -0.39418814360910    2.88895016891871
O           0.15633890332420    2.12535977771657    1.14675865020387
H          -0.25225505201702    2.95214850466614    1.41477244613289
H          -0.22468698922730    1.42422340187544    1.76543654338465
O          -0.30033102082459   -2.98413908706109    1.02732532341156
H          -1.24638842898087   -2.83219395187551    0.94128041253927
H           0.10970994120304   -2.30424899854022    0.46774043902938
N           1.97967832279281    1.13630501459912   -1.72068951665245
H           1.95921814737234    1.98181604967045   -1.16384965090658
H           2.94640951592430    0.92726669552470   -1.93568345980081
H           1.61720809876940    0.38415930484826   -1.13541274666300
