    26
        -50.45210041  Gyration_radius:  2.45788916848 Dipole_moment: 6.104
 S           0.70913825415169   -0.24363264814117   -2.09979334173120
O           1.27160725020180   -0.05466199099071   -0.76878275540276
O           1.39030143629510   -1.17996859839423   -2.91782962538807
O          -0.74617195259858   -0.69949118411994   -1.97130673156534
O           0.62648110138444    1.14133907690769   -2.77547557577041
H           0.74191919671459    1.85334380446034   -2.07431485438202
H          -1.30262983380360   -0.27238166296868   -1.20524682941010
O          -1.22560468560115   -2.04643426173508    1.28411350164971
H          -0.50279543063632   -2.33372723845203    0.68396859883545
H          -1.87868118238052   -2.74797078426917    1.26546708961953
O          -0.79923299369760    2.22029737765601    1.23327051061784
H          -0.22301500428638    1.51949109166441    1.67238238019229
H          -1.19295883772072    2.74800777466842    1.92886366531832
O          -2.06010262668142    0.16897632542531   -0.02206447732301
H          -1.83930216142958   -0.57874212772685    0.57437208415415
H          -1.67154349376843    0.97288223159076    0.37602321756651
O           0.78567692140637   -2.67795062642912   -0.41653655323432
H           1.16755327008160   -1.78902059913314   -0.48264414613181
H           0.71365803303302   -2.97943253860551   -1.32560066869624
O           1.06198025302438    2.62611210624850   -0.72435028090832
H           0.29756045126409    2.69764218939270   -0.12333642001978
H           1.54286225025778    1.84386978029873   -0.41971654593530
N           0.64467981078835    0.19518910904880    2.08033635575525
H           1.38726650185941    0.20560978300970    2.76775564320770
H           1.06290243066471    0.00238215268377    1.17273479556581
H           0.03845103150133   -0.59172852203147    2.28771095340979
