    26
        -50.46254255  Gyration_radius:  2.3983946181 Dipole_moment: 9.374
 S           1.84805650974790    0.13568284948379    0.51838022304074
O           1.06370967001951    0.95662436661385   -0.40133336284318
O           3.21538320993541   -0.02862826842700    0.16139611250508
O           1.75482519086027    0.87032104708093    1.91106318548177
O           1.15476661693960   -1.16275754506165    0.73748114712124
H          -0.21100659938205   -1.09479945484480    1.13400097263200
H           0.82842199097588    1.16298559708166    1.99229239770919
O           0.24232135632018   -1.76993276635520   -1.71422801241970
H           0.64922826991582   -1.72867337468886   -0.82863304359551
H           0.87638444101842   -1.28048359330832   -2.27712405599057
O          -2.05039045912387   -0.69524994988015   -1.19381909616377
H          -2.69750633012780   -1.12738913817756   -1.75249746050174
H          -1.15327775954508   -1.05247118619156   -1.48897565836880
O          -0.88747380328856    1.59320404232242    2.11119495655077
H          -0.96327121120550    2.40496293339617    2.61465858082460
H          -1.11975458919310    1.82432008656182    1.15901598784798
O           2.24604146734612   -0.15349042412692   -2.51446226912789
H           1.81988122176256    0.47539799428804   -1.90714591757387
H           3.05449855220128   -0.39806023353016   -2.05299490944441
O          -1.36399755032794    1.92164108077467   -0.40915811605504
H          -0.41642186376550    1.72923225782365   -0.57374971164739
H          -1.82241269469765    1.16625324891918   -0.80463942948333
N          -1.29095787747544   -0.97941673555179    1.36365993724458
H          -1.76588612002573   -0.90505639949859    0.43296340476826
H          -1.37925774745181   -0.09492088159393    1.88295763283075
H          -1.63190387143097   -1.76929556314321    1.89969651449432
