    26
        -50.44998236  Gyration_radius:  2.62743674701 Dipole_moment: 1.963
 S          -0.08697875889256   -0.04380364659281    1.16588494281599
O           0.24680601510716   -1.01349848000910    0.14049318583704
O          -1.49104250695847    0.12080579731986    1.38362119433145
O           0.62744527128351   -0.44457842817191    2.47238737464733
O           0.56243230699101    1.28915243733985    0.82423311605964
H           1.46710888420395    1.03431596641905    0.32393486374268
H           0.30295416339252   -1.34136106209034    2.80703430193953
O          -1.77897768981951   -2.61647252724048    0.91828840615466
H          -2.33500294997082   -1.86562214416916    1.15573202663456
H          -1.05055555252053   -2.22652858243342    0.40513488890614
O           1.98064544750991    1.71691448712944   -2.68145946347232
H           1.14888664254136    2.15648082889238   -2.36155869411731
H           2.57380924957442    2.42331136734774   -2.94164006369764
O           2.48631023306534    0.42797038652474   -0.47236649093507
H           2.39428472027049    0.88127159540899   -1.36035323050914
H           2.03480563543176   -0.42349429925112   -0.55703874900129
O          -0.24132617636213   -2.78729680252961    3.06248369108508
H           0.43180972791192   -3.45360921571202    2.90572077295709
H          -0.91174876336182   -2.88443304626065    2.34083235866891
O          -0.15562299706304    2.78274641934811   -1.56385963639598
H           0.04876522095963    2.76398250385900   -0.62346129335280
H          -0.83408194513169    2.07602192295959   -1.68220318080361
N          -1.74563942546506    0.59806249298784   -1.49415504406265
H          -1.12503979052679   -0.17910474381799   -1.68776179260711
H          -2.61630884324286    0.43166933179369   -1.98360561532005
H          -1.93373809886028    0.57709744099389   -0.49631786965332
