    26
        -50.45365679  Gyration_radius:  2.47295789685 Dipole_moment: 2.617
 S          -1.97599711370669    0.42291682091089    0.03145253517822
O          -0.71504082281895    0.58732344379248    0.72966231312304
O          -2.85479743618163    1.53158744085903    0.07453519138696
O          -1.70322857125779    0.04874422793058   -1.43224974056319
O          -2.65719889597396   -0.83524723819132    0.62474707887326
H          -1.94350155278768   -1.52728852845160    0.69794568698877
H          -0.87203547134813   -0.55846439178042   -1.54491098761470
O           0.70253757982628   -1.00912818987412    2.41506895616865
H           1.60611239680779   -0.91035543411014    2.04919471216690
H           0.21128821032095   -0.23285435152236    2.10351551574959
O          -0.63385648219767   -2.47815512458029    0.78529263034730
H          -0.83786878977233   -3.33978659515665    1.15355382889962
H          -0.08196492421890   -1.98968682743806    1.47907073553795
O           0.38622040538557   -1.34925141293303   -1.53436120441642
H           1.01251057920965   -0.63227787415654   -1.28989243580677
H           0.26103587508603   -1.91012991695422   -0.75253151362112
O           3.02978333586090   -0.47270090999698    1.11755244864688
H           2.66010933091415    0.07250700126439    0.40208456472164
H           3.70857197735228    0.05382688136534    1.54192527227140
O           1.49774654517090    0.93733837514454   -0.65621854015956
H           0.74587277074172    0.88049292975741   -0.03105180391791
H           1.21516628301341    1.66300066007192   -1.23973206559585
N          -0.42456569137268    2.67354246695860   -1.62254794476601
H          -0.81867941167223    2.20691148686255   -2.43203733247447
H          -0.44754956764122    3.66974605849817   -1.81093870812897
H          -1.07067055895717    2.49738899325886   -0.85912918298581
