    26
        -50.44798961  Gyration_radius:  2.53137384703 Dipole_moment: 5.120
 S          -0.78833398497844   -0.26220145495664   -1.21573356452389
O           0.54242080351352    0.16500682973859   -0.86111276449468
O          -0.91392303071199   -1.65786616607747   -1.48582447366067
O          -1.76671460499006    0.16407407062718   -0.09003543180371
O          -1.30648007607959    0.53779901557688   -2.40682488012402
H          -1.43050647396874    1.49927520302425   -2.07160286845493
H          -1.32398680450725    0.20939921431523    0.81817791821611
O           0.89212128355124   -3.03814263940345    0.02603628411410
H           1.66566527121887   -2.72848071476624   -0.48217780668580
H           0.13088075303467   -2.72909658542710   -0.49187264365409
O           1.04177362411836   -1.62562663061776    2.22882012372834
H           1.27430607589494   -2.24482179683480    2.92180851362350
H           1.00161170343116   -2.15680775017726    1.38793046548598
O          -0.76873174236875    0.24732617403294    2.26217249356021
H          -0.01354001206045   -0.39979761456535    2.25489291823936
H          -1.43546331435686   -0.13214055789672    2.83924918533811
O           2.49246801410621   -1.57704172773749   -1.62548122567748
H           2.24108735556882   -1.75569550072342   -2.53335856001827
H           1.91639969514897   -0.85343365389910   -1.32204925258683
O          -1.66068824094826    2.79901041002030   -1.33297012651648
H          -0.93819636679421    2.83505781852162   -0.62735756984816
H          -2.48621450099092    2.66481833330436   -0.86137307540945
N           0.20337530657635    2.61249107426770    0.51293456397302
H           0.62151094383569    1.78401386036633    0.09187007009381
H          -0.12176605834728    2.33717729916304    1.43235079837702
H           0.93092438111531    3.30570348012156    0.63153089871748
