    26
        -50.45192262  Gyration_radius:  2.49078668857 Dipole_moment: 5.217
 S          -0.48250833534502    0.61699382195473   -2.23287341029259
O          -0.79334409971713    1.77262462130684   -1.41121050175232
O          -0.23592274445566    0.86996132389186   -3.60318546852572
O           0.73580410799463   -0.08914868394314   -1.56498566197898
O          -1.58553198639769   -0.43690076165561   -2.08965624358047
H          -1.77400862845762   -0.63216137055521   -1.10519760743809
H           1.23358628292876    0.64256652849863   -1.03442607010606
O           0.59077862122524    1.13816638262236    2.03549384892740
H           0.53300686906357    0.16816332509266    2.02471042337046
H          -0.30890417014145    1.45843733440351    1.86578466456497
O          -1.87880960107627    1.81637708391399    0.95592946874352
H          -1.48908475783405    1.87064079897427    0.04844474617663
H          -2.54597276827498    2.50205292426746    1.00581589584624
O          -2.00861106298626   -0.83295873693115    0.38634392725462
H          -1.21454591995417   -1.17806536097471    0.84304662843289
H          -2.13924030704031    0.06889941806052    0.73194407702067
O           1.71252912556079    1.80479951690043   -0.24298037335831
H           1.08089043779855    2.45214828472122   -0.57695007722085
H           1.41684679489223    1.59328165573831    0.68625867511134
O           0.23243249001897   -1.59013039822739    1.71665971003736
H           0.19638433597765   -2.25624002981946    2.40426875645538
H           0.86253358644821   -1.92566144308406    1.01454095020593
N           1.82948600635668   -2.43286769547894   -0.22767979717963
H           2.82532543250732   -2.31451978129960   -0.08946334777280
H           1.53111492456519   -1.73834757902658   -0.90862218728393
H           1.67576536634609   -3.34811118935459   -0.63201101566086
