    26
        -50.45261339  Gyration_radius:  2.53096860034 Dipole_moment: 5.576
 S           0.57168521499470    0.52086727518611   -2.15595352243329
O           1.52578980712139    0.12790347238548   -1.13936980916151
O           0.43623720231412   -0.34863766038760   -3.26560509580680
O          -0.80921132993472    0.67915395570036   -1.47962700100506
O           0.93146098584006    1.94534492077590   -2.63342899526646
H           1.18231950575974    2.46178237860637   -1.81725163311758
H          -0.75247339107603    1.07416935746157   -0.53041379296059
O           1.30552263726529   -0.08138416096538    1.53251379752938
H           1.57874738616182   -0.13757470553614    0.59989411695813
H           0.78447736443847   -0.88352421064885    1.70279004669011
O          -0.62159086579628    1.56228425028641    0.89038041856129
H          -1.41763288208155    1.16515315804025    1.30439536652731
H           0.12796665641343    1.00646606233107    1.24701142246997
O          -2.32921532147059   -0.09899683621831    2.11084811987344
H          -1.77310149085497   -0.87825621014788    1.91927381163625
H          -2.41508988710165   -0.05087428397780    3.06422754724621
O           1.48528299068346    2.91020120450866   -0.29138935697488
H           2.09011221743077    2.22106985804987    0.00312720587877
H           0.67179753837469    2.79475176790756    0.22272782236292
O          -0.56027046872359   -2.13513713806821    1.57677173291246
H          -0.58885180621280   -3.03140721228832    1.91377205646110
H          -0.49877455949667   -2.20576012248003    0.57805591333125
N          -0.27841848042129   -2.21339213766348   -1.05870243441981
H          -1.00086837301764   -1.63028176567361   -1.46716908611929
H          -0.23568486268497   -3.06267172110490   -1.60987609307416
H           0.58978421205467   -1.71124950600606   -1.21700255808820
