    26
        -50.44435646  Gyration_radius:  2.53543548513 Dipole_moment: 6.763
 S           0.73132643800218    1.97763182409467   -1.44558173683126
O          -0.69623196786574    1.76234127923137   -1.53349993924017
O           1.19740169165332    3.29318106171630   -1.68334814211941
O           1.16922555445016    1.49609635078264   -0.01805381569740
O           1.46863409267915    0.98730856947797   -2.34798034295607
H           1.12201318649416    0.03607911395019   -2.15134071435688
H           0.37500927759455    1.46914456543332    0.61081230314710
O           2.09237649192061    0.20777590392615    2.27667168804796
H           2.81537755939468    0.58673355118722    2.77912884640018
H           2.08516923063308    0.65654853764429    1.41782186582853
O          -2.09073125753839   -0.39703770100250   -1.64472140664070
H          -1.59479833592521    0.46385976628941   -1.60091639525033
H          -2.79284689373550   -0.26386204991280   -2.28315929083746
O          -2.19182147360711   -0.86999125369870    1.00725270323225
H          -3.09632073444510   -0.72927620369932    1.29210326567467
H          -2.18700667884468   -0.76475128585660    0.03212073664520
O          -0.57219366587182    1.14835708200929    1.80730241301790
H           0.09732632746316    0.74936782612216    2.37916760087008
H          -1.17062832455684    0.42130072072572    1.53187064861541
O           0.52546406141603   -1.28509001800212   -1.80465991196856
H          -0.43446795728284   -1.17630093821563   -1.89151151570254
H           0.67327951992381   -1.53980818699635   -0.84958487375677
N           0.64406919374161   -1.98676632256274    0.76863724349172
H           1.23256927552760   -1.41074360981003    1.36035449480536
H           0.91219243943089   -2.95213009310839    0.90889225857414
H          -0.31438707065411   -1.87996849973700    1.08222198702264
