    26
        -50.47104617  Gyration_radius:  2.54682354338 Dipole_moment: 4.088
 S           0.69887240101839   -0.78432969908191    0.33599041430478
O           1.05422562093167   -0.85689963740768   -1.06512624521222
O           0.32154711432294    0.59205370269181    0.71362293643187
O          -0.38524678452101   -1.70760048640926    0.66476436380900
O           1.94257264471511   -1.16017331548757    1.17527516927111
O           1.98536254116073    1.59213532131064   -1.37206065397643
H           1.82349881376220    1.87394156049559   -0.46713812508594
H           1.78206028245095    0.63191069120801   -1.36468411320377
O          -1.55240397893870   -1.54925787283750   -1.68957642856434
H          -1.28051903695344   -1.79458045114529   -0.77821385734068
H          -0.73848819968474   -1.65327161077739   -2.19498132653449
O          -0.03151742444787    2.34347004657033   -2.88101155912882
H           0.12256720316347    1.96303652062148   -3.74732155718664
H           0.80443996122604    2.18730698520698   -2.36525058805006
O          -1.03454954050537   -1.69895146083569    3.23080218315968
H          -0.89471957782819   -1.73273105459488    2.25930711497475
H          -0.96622341493367   -2.60400528740062    3.53958561415518
O           1.03695384190139    0.00048719739397    3.27796160332143
H           0.67677665305348    0.63313609878410    2.64080461521134
H           0.28245181272671   -0.58346826975769    3.50833838203221
H           1.75728671765454   -0.79265450032144    2.09100415348084
N          -1.50818575831679    1.03527549558083   -1.10549605935766
H          -0.81775628481978    0.95846452538599   -0.30112170176092
H          -1.66982844346853    0.03803761832028   -1.43193072390088
H          -2.37162602785178    1.47371790077708   -0.80256852965402
H          -1.03755114585354    1.59494998165784   -1.87097508116365
