    26
        -50.44909161  Gyration_radius:  2.47783831481 Dipole_moment: 5.927
 S           0.42380855397629    0.11979697300023   -2.25884894521693
O          -0.56236025522607    1.14960065577299   -2.05065859245577
O           1.09692764480714    0.08615290242690   -3.50395605798153
O           1.46320033319209    0.21193194448387   -1.09287260498838
O          -0.20757359731612   -1.26229810137038   -1.98806452055965
H          -0.91018392754310   -1.20156645096326   -1.25171776621301
H           1.43873232562588    1.12914996621806   -0.65693290283123
O           1.43108607484372    2.39846076119718    0.18862278504143
H           2.26337987796525    2.52458014184420    0.64818549810357
H           0.75068932397224    2.17709493632290    0.88556114110802
O          -2.23656173919629    1.60453367633646   -0.11420816735204
H          -1.58640024510889    1.53465170373048   -0.85619332259645
H          -2.88669304018148    2.25113915788284   -0.39161828980857
O          -1.89233413793058   -1.09480340774811   -0.08148790575451
H          -1.35119628142589   -1.17139427923283    0.72997735932765
H          -2.23334258738146   -0.18280129583743   -0.08474990376223
O          -0.37162887822859    1.58738921760105    1.89737045548373
H          -0.24931255490874    0.63320569650051    2.02795735998757
H          -1.15277059710890    1.67810148026040    1.32423305922604
O          -0.16597080707493   -1.19440945442407    2.01089895568192
H          -0.30202140914695   -1.75658745093940    2.77446036148043
H           0.54059552433990   -1.62817836897841    1.44791648933244
N           1.53641753381787   -2.33394583244820    0.33139669361631
H           1.00696889774136   -2.96160516941757   -0.26269691125219
H           2.41340855545722   -2.78501728974711    0.56045892794602
H           1.74313542203623   -1.51318209247377   -0.23303318556369
