    26
        -50.45564921  Gyration_radius:  2.41828083628 Dipole_moment: 3.084
 S          -1.13689590443414   -0.94740388725213   -1.01701067924491
O          -1.22285032367380    0.42734884953363   -0.58646235678034
O          -1.53004773813981   -1.19556843222595   -2.36206220633998
O           0.29096622668995   -1.45584470340540   -0.74646016890772
O          -1.97530447924692   -1.82377290862146   -0.05768008100430
H          -1.72598475651432   -1.57837702646426    0.87788488456406
H           0.99547378455808   -0.68912890270856   -1.05414730211591
O           1.82119407327063    1.13790395432203    1.27769279012412
H           1.73559983129435    0.17796881975290    1.51562556765827
H           2.66543583237864    1.42603963002764    1.62761072427761
O           1.39219003112346   -1.42690366595288    1.79918275046754
H           0.54328406944886   -1.46857377072613    2.26161957532854
H           1.20111370691011   -1.72865942409212    0.89921563730256
O          -0.87791104716569    1.40704063502849    1.84121553486114
H          -1.13101894074795    1.25135443708622    0.90991476111744
H           0.08379575675700    1.53468428017812    1.80260516818739
O          -1.31324256216946   -1.08337844527133    2.35871360416821
H          -2.05941049632935   -1.18666661704451    2.95199961086697
H          -1.16859911415346   -0.08909595242692    2.24977949596070
O           1.77316174699080    0.40958835662739   -1.36375643971444
H           1.15978851449841    0.86522529832145   -2.01635887621687
H           1.75983545559749    0.90419572032255   -0.52024104638403
N          -0.07548807457954    1.25315126309668   -3.03890106474608
H           0.05754417995823    1.58174340417407   -3.98771896764560
H          -0.66451050733176    1.91666393178846   -2.55053595359627
H          -0.59811926500192    0.38046513591204   -3.07172496218564
