    26
        -50.44391875  Gyration_radius:  2.47140430473 Dipole_moment: 4.846
 S           0.46083927579003    2.02275468761503   -0.38354761942284
O           0.49923260441552    0.80233643665995   -1.13196635163497
O          -0.50208354907172    2.98542938750632   -0.80323089863577
O           0.17587088459333    1.64941048344626    1.12345476707186
O           1.86717298962045    2.62452805392840   -0.29405742968632
H           2.43947481187860    1.84115095202958   -0.01812602072074
H          -0.83837485897173    1.68735106282229    1.19152995326093
O           2.98397752693183    0.49310955386872    0.58086915899085
H           2.66880531840243    0.47880113461864    1.48841469099788
H           2.60794510139003   -0.31166499104862    0.14839745479913
O           1.88339110580512   -1.88607103642856   -0.02903005870687
H           2.37172434936021   -2.56542616615076    0.43984772157063
H           1.09308643969326   -1.67977394743099    0.52361763571929
O          -2.42709779277363   -0.99372965547543    0.10859369393290
H          -3.21123788944658   -1.54326594019914    0.08141749084469
H          -1.86003713593325   -1.24355810697585   -0.68928343234260
O          -2.33058730971678    1.63069072609217    0.79614066856331
H          -2.22367048854300    2.18718766954704    0.01395563784745
H          -2.47465311317177    0.70785443654191    0.49674517735271
O          -0.08580196051016   -1.11222626036560    1.59609950615421
H          -0.96721775287822   -1.19715071567955    1.19585067445107
H           0.09415354166955   -0.16246755423157    1.59413718934725
N          -0.78637801314069   -1.61134796665554   -1.84350603403751
H          -0.25014153654436   -0.74961126212540   -1.73517283360900
H          -1.04419977892965   -1.68834132301852   -2.81945726691352
H          -0.14419277988126   -2.36596965887129   -1.63169348519769
