    26
        -50.46746935  Gyration_radius:  2.37362679305 Dipole_moment: 4.690
 S          -0.09247563482941    0.98459632368752    1.28729278626393
O          -0.30529573483505   -0.45021002049314    1.09311438137338
O           0.70377914522066    1.19911561812721    2.48670779728633
O           0.53711581209949    1.58255573598370    0.10661061880996
O          -1.46961271163320    1.65550939245650    1.48335057205025
H          -2.01570598969569    1.44637310128295    0.66123063366264
H           1.77293623745068    0.50893893874125   -0.29590377998276
O           2.27569487842805   -0.32565124672670   -0.41643890460608
H           2.26520305548995   -0.76474763167547    0.99078968981347
H           1.69322224432654   -0.85193322135666   -1.01846453275694
O          -2.67901248029534    0.97700927607904   -0.69601062985338
H          -2.64489525952854    0.00237767979133   -0.69071705672364
H          -2.06235894155400    1.23542585112721   -1.40399442145843
O          -1.94065674480428   -1.64830011641302   -0.49474162435489
H          -2.40125100953524   -2.33082900828117   -0.00577929668814
H          -1.31268410879952   -1.21926686170303    0.14358308239741
O          -0.47560179165133    1.37327941298508   -2.27377433838085
H          -0.06170398084027    1.49177728513985   -1.38126210469937
H          -0.17989473123228    2.11296046237629   -2.80605069012737
O           0.39990695172334   -1.28938349201991   -2.05694780336032
H           0.12551039656338   -0.41365446553090   -2.37177344919163
H          -0.38070708200216   -1.63721212286224   -1.60371203065529
N           2.13289403136391   -0.90675594526334    2.07976744780778
H           1.61155616164633   -0.01156710927495    2.38497006796628
H           3.01005734028286   -1.03640198415920    2.57402757813009
H           1.49397996663275   -1.68400583203254    2.22412600727239
