    26
        -50.44659245  Gyration_radius:  2.56608625693 Dipole_moment: 2.926
 S          -0.60857591125986    1.91611388396386    0.93787769681887
O          -0.92621395883641    0.66717629150402    0.26487494600754
O          -1.30421238394219    2.13856235268756    2.14903279588276
O           0.93242398491164    1.95798312121276    1.14159801114469
O          -0.81672357215614    3.08083693044203   -0.03313920520222
H          -0.11218618485806    2.97600930205099   -0.75062905883457
H           1.33495016243443    1.04193992536966    1.31757960505294
O          -0.79991951893242   -3.37132034557236   -0.01084191574538
H          -1.07834007414786   -2.73255605281599   -0.71476079146217
H          -1.55791245103160   -3.92938125714889    0.16799727435347
O           1.19611999248009    0.04804238693635   -1.24018282696922
H           1.82881749160703   -0.30584442024284   -0.60645781616003
H           0.35937260379682    0.13353962615566   -0.74426683450572
O           1.92801115989976   -0.36049858594856    1.52368554685379
H           1.08564357429190   -0.90563029654266    1.67705684191404
H           2.42029619422015   -0.39453592374697    2.34579513084209
O           1.12990283782561    2.67013946843197   -1.64391974528886
H           1.23230635032158    1.68663186825293   -1.64475677769914
H           1.88140293302981    3.01829743555388   -1.15775645978254
O          -0.34263727026890   -1.49445612237211    1.83640703426964
H          -0.82977379964214   -0.77162006556900    1.41177099275652
H          -0.44407195526832   -2.26927517959832    1.23420474946713
N          -1.59562682015480   -1.44169901961496   -1.73374474927998
H          -0.79785017736564   -1.22871545145963   -2.32172575124737
H          -1.69644719700730   -0.66807559471690   -1.08311863440808
H          -2.41875601995528   -1.46166431715076   -2.32258005879115
