    26
        -50.44962849  Gyration_radius:  2.51001037985 Dipole_moment: 3.457
 S          -0.27388678454105    1.04899341924669    0.65892663213320
O           1.10161418838095    1.32856487832818    0.96751519692632
O          -0.89430158739275    1.92664908355708   -0.28695208142887
O          -0.35666012947124   -0.41357938440999    0.13273104922286
O          -1.11039527176269    0.99387419698330    1.93341640408578
H          -0.49882554333912    0.53244827404636    2.61725107306357
H           0.57793988378093   -0.62976334922323   -0.23655386002783
O           0.72110530473129   -0.08854867754221    3.28470813707628
H           1.35851210286947    0.53202009463090    2.91153100034746
H           0.91139009871618   -0.96144434171817    2.84099496569227
O          -3.06953021912311    1.37056279190793   -1.80785399147591
H          -2.37724298269908    1.62913657496137   -1.17399618576764
H          -3.24623898881815    2.14556886763708   -2.34426090160713
O          -1.45894971502817   -0.67396299216864   -2.59401376494818
H          -2.17198698021500   -0.01587711765034   -2.48175618310289
H          -1.34456368871637   -1.06519197948957   -1.72334444695988
O           0.68798681181760    0.93493302875989   -2.42833379556115
H           0.26120297778010    1.57060620501647   -1.84143749730216
H          -0.03306240284306    0.32874473733888   -2.71284897192445
O           2.00811796025359   -0.55390406695740   -0.73206780399779
H           1.73867247969547   -0.08042754309602   -1.56259453168132
H           2.26768033466983    0.15747214806980   -0.12830812629561
N           1.27081230040467   -2.29718060433583    1.85224318828758
H           1.89502159230106   -2.05170947774387    1.09171576332143
H           0.38334172249828   -2.55937000050807    1.44049603349372
H           1.65224652604846   -3.10861477566996    2.32279270844297
