    26
        -50.45639486  Gyration_radius:  2.49493805333 Dipole_moment: 5.183
 S           0.81410472705783   -1.26866899033862    0.97647813851111
O           1.72447782040618   -0.80010370839576   -0.08794439712493
O           1.10453848005344   -0.69307015219424    2.25848371137522
O          -0.61913515649720   -0.76886277547629    0.52389966023577
O           0.67928032371760   -2.71729115865132    0.94483987471652
H           0.37072732675634   -2.84859838368206   -0.57340754663383
H          -0.57217578702831    0.07852194134888   -0.00390243820283
O          -1.47485158139327    2.80295046555182    0.96070194963629
H          -1.21595501935273    2.20614850183970    1.70002080732781
H          -0.92046469347946    3.57959500211449    1.05667011675262
O          -1.69977719455389   -0.97253634333075   -2.14576290528085
H          -2.31535327363151   -1.13685120147441   -1.42630764457474
H          -1.35952698178391   -0.07369455809047   -1.98161752954611
O          -0.62691490091323    1.19940601291932    2.93030109608322
H          -1.29466438426353    0.67989080438230    3.38080232471796
H           0.08603941106296    0.56438468764268    2.70194220718890
O          -0.63119596022150    1.31098480308271   -1.03722009571785
H          -1.07828034556193    1.92622866352807   -0.40428024566756
H           0.30493214733217    1.59266369586754   -1.02985467643856
O           1.95393700376307    1.78307810182261   -0.52807670790844
H           1.97885137516884    0.84244616225406   -0.24358278870144
H           2.78938734152602    1.95361957244820   -0.96451513543612
N           0.46299164471930   -2.44861985930728   -1.56715714872935
H           0.80223696577277   -3.12023490252759   -2.24744146366806
H           1.16509567988420   -1.69831291331726   -1.31986167912350
H          -0.42830498855079   -1.97307345801367   -1.87320747378346
