    26
        -50.45251963  Gyration_radius:  2.4509225869 Dipole_moment: 2.941
 S          -0.04215556618043   -1.00615820555732    1.50001187951259
O          -0.31087865174946   -1.17076025202991    0.10206480678850
O           1.25246178534916   -1.45445387290845    1.92336165384239
O          -0.21473731595348    0.49261764268625    1.86878419917993
O          -1.13659050998922   -1.67268914471596    2.33444140066835
H          -1.99833219509433   -1.54099049569418    1.81127667833954
H           0.46948274199959    1.05651444808954    1.30544462473615
O           2.94580709867606   -0.45355299238962    0.13252243030510
H           2.36103771469264   -0.94966318849711    0.74451218499743
H           3.79057104744889   -0.38242585038717    0.58259292387311
O          -0.22180910801533    1.66335357844742   -1.82637934539521
H          -0.17750866839838    2.27136880010194   -2.56530165719880
H           0.20763068033819    0.80467575906642   -2.11983970991235
O          -3.22951470228242   -1.13422527550994    0.98319140618957
H          -2.91037950174825   -0.34989523458526    0.46781178810716
H          -3.93724129226327   -0.81302205618198    1.54758318046864
O           1.35367443608016    1.70597703975482    0.35408243365256
H           0.79392891266705    1.80098056244910   -0.44897692454387
H           2.01051575184237    1.00416794669935    0.15327207272111
O          -2.24551821891416    1.14081714646042    0.07346466344191
H          -1.69299019431665    1.23628995656884   -0.71804452827096
H          -1.62458382345929    1.15816087828440    0.81423855028139
N           1.04065616727835   -0.59714997688254   -2.32029495834645
H           0.51927591678051   -1.03891581191770   -1.56298728329216
H           2.00547480087136   -0.56462837255364   -2.00985284319819
H           0.99172272432258   -1.20639304872378   -3.12697962697766
