    26
        -50.45073187  Gyration_radius:  2.44547205392 Dipole_moment: 1.534
 S          -1.11392252212094    0.92912301581582   -0.42443487683207
O          -0.76596111820601   -0.15357746559391   -1.30666230745997
O          -2.29441978534698    0.70542962999545    0.35769431011876
O           0.08371891854681    1.17562042755333    0.54512613962321
O          -1.20002628723071    2.23288394237997   -1.19416005982649
H          -0.22283352937770    2.43922062839796   -1.51340955185318
H          -0.23551341987778    0.94589256282788    1.49839034530490
O          -0.27951639095221   -2.12310550006705    2.00879172863151
H          -0.32764737466753   -2.94310736608616    2.50272999974524
H          -0.92359270226653   -2.20479042447621    1.25980704614322
O          -0.94123322965346    0.38594558924965    2.69588249527823
H          -0.67442360893149   -0.55831734038353    2.63352135244184
H          -1.81471936895278    0.45686554830626    2.28525158708999
O           1.21037993067918    2.58433855403821   -1.75430334597898
H           1.55926149861874    1.65084505045009   -1.98917661986807
H           1.58843299203628    2.79735639336272   -0.89730984971083
O           1.99360088125681   -0.94821214780443    0.62983793906194
H           1.51292762958514   -0.11398889939361    0.59462769292520
H           1.41389425876839   -1.54792838714631    1.11501298986318
O          -2.04255137673300   -2.06879132721515    0.04194202160076
H          -1.53054595969692   -1.58701948251187   -0.63263177932004
H          -2.73107608109728   -1.44453044752418    0.29425055686839
N           1.93928171068803    0.12233565905306   -2.17957302636360
H           2.34897344984230   -0.19929433183974   -3.04687020493317
H           0.99120809224805   -0.24229396983264   -2.11506591451382
H           2.45630339282582   -0.29089991158716   -1.40926864803343
