    26
        -50.44316635  Gyration_radius:  2.50931383009 Dipole_moment: 5.893
 S           1.08654875230538    0.31418359110808    2.25409347228666
O          -0.34952710849236    0.15140106579436    2.39007712632255
O           1.88625176594981   -0.22431655394915    3.28906222131986
O           1.50429172296240   -0.25748459429521    0.86896694721997
O           1.38770425282501    1.80591545555727    2.03862085239669
H           0.58354747830384    2.17324108711286    1.55365649211696
H           1.09401483814462   -1.14777813657182    0.56967403140569
O          -1.15683460435447    0.78105835684684   -1.12783705334716
H          -1.33740257702899    0.05662928483117   -0.50899683977985
H          -0.18169009497117    0.80585721516291   -1.32249757869678
O          -1.88605950401771   -1.17019314681042    0.78449604702506
H          -2.73074728976680   -1.36351243179625    1.19302072628967
H          -1.34744425327975   -0.69465186500792    1.46429492557367
O          -0.43240992566094   -1.55479182470757   -2.59244257990869
H          -0.83858780009217   -0.69962946901217   -2.37376676218104
H          -1.10332534665774   -2.08138229411204   -3.02924663185212
O          -0.83313514511910    2.46388661309139    0.94234818547079
H          -1.32581709529575    1.97683354318038    1.61111157219127
H          -1.00440992239900    1.99641885513683    0.08922068477134
O           0.37968441380147   -2.32305228650791   -0.07976883237103
H          -0.51933524112339   -2.20271745943310    0.27390463241893
H           0.29708709220610   -2.13418140616989   -1.03561798168445
N           1.44246322287166    0.85402988712768   -1.78075080755177
H           1.66140938750796    0.14285740296694   -2.46688225473843
H           1.89293777440253    0.59860000653189   -0.90841611429040
H           1.83078518688892    1.73277910357089   -2.09632449035386
