    26
        -50.45690566  Gyration_radius:  2.43545892741 Dipole_moment: 5.219
 S          -1.02099746981625   -0.43309924588133   -1.48839111124181
O          -1.33469365732075    0.06748801782265   -0.15716312371102
O          -1.04751063537857    0.58105578007086   -2.49003689857782
O           0.32560847460132   -1.15023498290192   -1.42559141064350
O          -1.98545191036321   -1.56649394711197   -1.83992850370555
H          -1.68891860207095   -2.36395110224902   -1.28494122996452
H           1.13418385531325   -0.52456583965996   -1.03472332647873
O          -0.55865110379032   -1.74698427001052    1.62954084951493
H           0.27444810779065   -1.37193943608642    1.93930298358264
H          -0.95215939632637   -1.05628885545138    1.06290334357282
O          -0.65930978621387    1.92738730690837    1.58414719041333
H          -1.37981008099950    1.96213718993726    2.21649497382937
H          -0.96093023234437    1.32127770723249    0.87294670561442
O           1.39453894844468    0.30147696014999    2.14586943410568
H           0.66090266283875    0.94877804708984    2.02236825311908
H           2.00467820744262    0.68778319285024    2.77565519486958
O           2.05307715620380    0.31815322043645   -0.47670978864170
H           1.91472646581776    0.24209327417351    0.49165274291305
H           1.66466564558546    1.21202934984784   -0.74718022404346
O          -0.95231625488303   -3.41428280697632   -0.40958406575446
H          -0.08266778163141   -3.42274342753265   -0.82057670131813
H          -0.83241528370671   -2.96450932818636    0.45950606301318
N           0.70720746904069    2.44560742413466   -1.17779268985798
H           0.01810567255053    1.95377243193105   -1.74586786323220
H           1.07700371995899    3.21099889294963   -1.72660538944202
H           0.22668582926998    2.83505445651744   -0.37529539794111
