    26
        -50.45895119  Gyration_radius:  2.41698547962 Dipole_moment: 6.477
 S           0.81238507117374    1.02455676611990   -1.41166752888605
O          -0.41860618538943    0.95225176212321   -0.61163345145835
O           1.61796855121173    2.16304427651940   -1.10072108614247
O           1.61297229854416   -0.29953115946775   -1.06472382412543
O           0.49164246838777    0.82234110013683   -2.82697138249511
H          -0.10807894841034   -0.43655255450538   -2.66384361255890
H           1.62412200221784   -0.45283732318843   -0.09257810789598
O           1.46950154355994   -1.01183955133144    1.45807441941688
H           0.93123693209440   -0.37707824699491    2.02953514680686
H           2.29872039348090   -1.15031968916604    1.91704359058070
O           0.01274151375793    0.61806208718375    2.82804736843144
H           0.15727065126717    1.49783815027427    2.41465587604061
H          -0.86161482711323    0.34041504262175    2.51361971652225
O          -2.09204087014699   -0.07619635078756    1.11442453595226
H          -2.92151704132188    0.40154520335337    1.07763264961591
H          -1.49450945658990    0.36341211659135    0.46671615026520
O           0.23010903710201    2.76855541998705    1.24450073647857
H          -0.09324377203302    2.21464380872216    0.50895094064714
H           1.04996979293941    3.13369847127761    0.89996757464057
O          -0.65644021821091   -2.16040070689383    0.05814596094698
H           0.17364502292930   -1.96292715800940    0.52088295084853
H          -1.31911822792613   -1.60164172661921    0.49933310916797
N          -0.54072123337217   -1.45847673292789   -2.49528077423693
H           0.06059476997285   -2.13157651550693   -2.96185786075615
H          -1.48141908106651   -1.50275241416380   -2.87571181274630
H          -0.55557018651623   -1.67823406571601   -1.44654127672366
