    26
        -50.47328335  Gyration_radius:  2.39693006314 Dipole_moment: 4.191
 S           0.15670386354197   -1.47333426431277   -0.86100398114075
O          -1.14707974873448   -0.80353812266042   -0.83330452711005
O           0.89561797338538   -1.14564036105171   -2.06541615071715
O           0.92712215285269   -1.13511852627936    0.33738265853234
O          -0.09763824403590   -3.00285917816296   -0.84132980450486
H          -0.76103918256526   -3.10445762198353   -0.11796685147559
H           1.93115525404895    0.27572812761973    0.60654437793279
O           2.14640110630046    1.22939262068369    0.59690203378646
H           1.79633509863507    1.45666192300339   -0.85950932300963
H           1.38922840917438    1.64586696596778    1.07656197514322
O          -0.23199787785902    1.93903434608289    1.55582604816819
H          -0.71660431041752    1.99944848313278    0.72024379667030
H          -0.50098121549014    1.09819780850389    1.96393388387850
O          -1.24837270908247    1.75556533000608   -1.08615928227345
H          -1.25348434971106    0.76392522048908   -0.98358006598364
H          -2.10645948274171    1.98852848998382   -1.44361856527337
O          -0.49801985753223   -0.69599222178775    2.46032126776525
H           0.06794791057287   -0.83619622620924    3.22155204522525
H           0.06187142177169   -0.87864389831919    1.66357128976467
O          -1.93298831210650   -2.57817796615356    0.98490135638763
H          -1.58672445472252   -2.11787565520470    1.76599664358424
H          -2.09031810948595   -1.86731678324695    0.34317016617135
N           1.33089601324885    1.41466253577079   -1.84374461111424
H           1.86828629635360    1.89667166395548   -2.55556986778001
H           0.37355339062964    1.79828202645626   -1.74609762712103
H           1.22658896375022    0.37718530367139   -2.05960689550137
