    26
        -50.44227345  Gyration_radius:  2.69447586065 Dipole_moment: 7.723
 S          -2.80793211289808    0.02539416402500   -0.71614686451230
O          -1.92707722918451    1.17555785479667   -0.80082963340328
O          -4.05380144429339    0.14894038002212   -1.38015200891645
O          -2.00850891924952   -1.20416078478343   -1.19707654918093
O          -3.05929763947921   -0.30902316511395    0.77916872677144
H          -2.18014050213671   -0.54734024683598    1.17269642865950
H          -1.24472292210822   -0.86483680533068   -1.84140326430545
O           2.00680839475255   -1.47981603819408    1.12543708744201
H           2.11898636828413   -0.79171249591927    1.80478881550255
H           1.07878027368641   -1.74027646240554    1.18981448120190
O           2.17162038931750   -0.00844417048986   -1.06362412976342
H           2.15060784657736   -0.66057298193434   -0.31553207903500
H           3.09738399240562    0.15722401651005   -1.24616966373573
O           1.83469639483857    0.79735955316446    2.71249061143471
H           1.33290869655071    1.25346153162165    2.01631508555379
H           2.48243968346556    1.42032987737138    3.04290469948010
O          -0.65735238837510   -0.71750152616856    1.73304267662914
H          -0.61232660300361   -0.54571914854963    2.67693101612778
H          -0.25045786442838    0.07145068107684    1.29267977061976
O           0.34932929485098    1.39949528751884    0.46725645487818
H          -0.50794833609577    1.48402816202958   -0.00990252491952
H           0.97966551823190    1.04866512261837   -0.18674377673274
N          -0.23293173559664   -0.17974691301625   -2.68894456354075
H          -0.17138141113699   -0.49393264899750   -3.64711915886681
H           0.68892931476665   -0.21077119024377   -2.25903189453920
H          -0.57827706010274    0.77194793691698   -2.66084975315488
