    26
        -50.46450508  Gyration_radius:  2.41028416558 Dipole_moment: 5.525
 S          -1.45051359920768    0.19164269141470   -0.45569019100656
O          -0.51672494240723    0.78987686850145   -1.40418310249050
O          -1.87556177673072   -1.13206985877640   -0.83749789205801
O          -0.66873597684792    0.07521771832512    0.91032406522113
O          -2.55309274008532    1.09543859076465   -0.12699505438479
H          -1.90179756435940    2.07840775380945    0.64809311665031
H           0.32956979850133   -0.02267701467480    0.75246455926733
O           0.96891734858544    2.44549452954421   -0.04872762766424
H           0.49413346121653    1.92256256090592   -0.73966463142026
H           1.59607036901395    1.81884116568682    0.33665244910970
O           1.85660254503666   -0.17602794250148    0.57671297013273
H           1.88530069335133   -1.04935143538787    1.01656609524791
H           1.94030069659439   -0.38218664004055   -0.39398277594493
O           1.00015998200175   -2.58044147769516    1.40894739252063
H           0.73243470500680   -2.85501062579230    0.51244280039062
H           0.19363590095640   -2.29207795810596    1.84229956601600
O          -0.01743169729206   -2.91380610565708   -1.11753453629666
H          -0.39868235888619   -3.68385205262805   -1.54148843338703
H          -0.75643593362023   -2.25727358972204   -1.02451704760456
O           1.57146355927679   -0.80342327999431   -1.95219271555435
H           1.18531123361314   -1.68761762703693   -1.85277473955330
H           0.81061226540374   -0.19614038472931   -2.01128465497850
N          -1.26771531798800    2.76930902771973    1.25528422933798
H          -1.64067271731547    3.71351381079221    1.24239712485620
H          -0.29120031338615    2.72534242837221    0.80138610271162
H          -1.22594763045561    2.40630881692499    2.20296294086415
