    26
        -50.44958927  Gyration_radius:  2.51730039092 Dipole_moment: 6.763
 S           0.50284407079464    0.09265718963509   -2.47708308303364
O           0.50912624553736   -0.76276118479308   -1.29741780616435
O           0.86902959593921   -0.53619108759319   -3.69093135697321
O          -0.87011666364929    0.75884140014345   -2.59203887964394
O           1.47714471182758    1.26584923638107   -2.20219792887468
H           1.33051573360294    1.59889166083532   -1.27574418210158
H          -1.51156479861616    0.59695557425813   -1.79199166919014
O          -2.40671828640924    0.32651629155197   -0.65321910948381
H          -2.28836866462525   -0.60952883721973   -0.42991035651918
H          -2.04677134139968    0.83178383040724    0.12180067121994
O          -1.16663968563027    1.39201108119509    1.41322398062822
H          -0.87429663434953    0.57707294785502    1.85811240703488
H          -0.37146239634236    1.79097379731628    1.03126714330615
O          -1.30218337142433   -2.14952260136054   -0.04514492062321
H          -0.58818130185533   -1.67789700256817   -0.53990581224671
H          -1.34945587943974   -3.03120127214984   -0.41740469753594
O           1.29075714325482    2.04737372036737    0.27462673986269
H           1.63577026840611    1.17820143019010    0.67953521683393
H           1.95085785186229    2.72323175079106    0.43703378074770
O          -0.59781224995745   -1.14771722553435    2.40330051578796
H          -0.85581142641948   -1.58691847839807    1.56966226671147
H          -1.27317428169778   -1.36671466365931    3.04738721006502
N           1.98502001869032   -0.30675006363784    1.12755875877232
H           1.38012184565126   -0.62943273764505    1.87530684929098
H           2.92252126115036   -0.64038740892736    1.30756990837659
H           1.64884822510848   -0.73533737742734    0.26660434374706
