    26
        -50.45045171  Gyration_radius:  2.47854203551 Dipole_moment: 3.911
 S          -1.41359257627401   -1.38184699721012    0.93793314277744
O          -1.73726188334108   -0.10882627485814    0.32203756863618
O          -2.00301785783346   -2.51769443480977    0.32387231448627
O           0.13244346987165   -1.51755318896112    0.94410740780212
O          -1.73761121762339   -1.31027771681960    2.42993973802239
H          -1.18602760549436   -0.55341089407737    2.82012656644842
H           0.37989492680740   -1.81157898397104    0.00639954195886
O          -0.36511963085359    0.70363437600535    3.22540633273902
H           0.04541582200685    1.04686011464603    2.39105409954792
H          -0.95944295462689    1.38968671206560    3.53806701545195
O           0.35096728412499    1.45426457148418    0.78416082675634
H          -0.44587726713277    0.93705503041057    0.54916287773535
H           1.11841295454671    0.92549560431481    0.44332556580107
O          -0.88190467531277   -0.02798410831434   -2.26024594303381
H          -0.37722612489405    0.80854945866572   -2.25948703870302
H          -1.42195915867597   -0.00528631503466   -1.45316191987398
O           0.33517364687486    2.39852150772483   -1.79746298774617
H           0.37390073899637    2.27076899562103   -0.82889533832364
H          -0.25839443777906    3.13349697714839   -1.95751295112516
O           0.39697981191686   -2.16380541309209   -1.49684757296767
H          -0.03115764209121   -1.36617839649498   -1.92422538468624
H          -0.26228645214684   -2.86247780537281   -1.53956243307994
N           2.31193651466701    0.22748311043213   -0.61118387254562
H           3.25466429892444    0.21513098622479   -0.24437511424306
H           2.29922092908829    0.82711340591696   -1.42837577511253
H           2.08186908626480   -0.71114031164261   -0.91425662670390
