    26
        -50.44521453  Gyration_radius:  2.60188752523 Dipole_moment: 6.037
 S           1.76740144824282    1.05401699344947    1.51633241447446
O           0.45992115872374    1.58862803398730    1.15266999478049
O           2.22883376064875    1.40489412798732    2.80681705571390
O           1.65355203208884   -0.50598990224293    1.36788848326785
O           2.78312430741667    1.41589493323409    0.45357251010156
H           2.43896206911793    1.16134609439944   -0.51591378914730
H           0.71188434522994   -0.73751670494633    1.59425528131332
O           1.87791035132442    0.78152920897492   -1.78048211564425
H           1.71228814766713   -0.20611280653497   -1.70894968311463
H           0.99453910691097    1.18738343822604   -1.81532892841348
O          -0.91269440642166   -0.63047566846106    1.63788477176655
H          -0.76477294631349    0.32988357960365    1.65393257973271
H          -1.09847901766322   -0.84380971545076    0.69001317972113
O          -1.60643383867653   -0.85399639483568   -0.93670282763053
H          -1.36085523721552    0.04714870763634   -1.20964166371306
H          -2.53842790096230   -0.81384674331985   -0.67496846623869
O          -0.63889019494388    1.71952199118451   -1.21464331859890
H          -0.25628986745755    1.73727846167466   -0.30445734563935
H          -1.04083796228354    2.57773016101304   -1.35655903317599
O          -3.69803464884026   -0.64216744009239    0.88982061020845
H          -2.95872834253796   -0.65523698504114    1.51443047638603
H          -4.39066620261119   -1.18636937559582    1.26631573099195
N           1.24566342163257   -1.75198126398392   -1.35761343001083
H           0.23171151297143   -1.77782296238563   -1.33433104735397
H           1.58724346551232   -1.87576355583371   -0.41157194878649
H           1.57207545849041   -2.52416620265853   -1.92276950105659
