    26
        -50.46297501  Gyration_radius:  2.42317557492 Dipole_moment: 5.553
 S          -1.47041229772485    0.31775082165694   -0.53528522190438
O          -0.40351580406667    0.93825477173134    0.26571246853218
O          -2.03034185687118    1.31770888649163   -1.43370080695051
O          -0.95781317234882   -0.84383543670445   -1.25206503789168
O          -2.57510177633918   -0.15131786541362    0.44073558178687
H          -2.26685489172420   -1.04584591971402    0.76434662575663
H           0.45233354368612   -0.58258519029866   -2.14118676102414
O           1.29649521783833   -0.13991003917710   -2.38921514185863
H           0.78839883225943    1.23885164620662   -2.37412823005181
H           1.83216831187744   -0.20938522489898   -1.56449036665865
O          -1.38394761558009   -2.40639607504105    0.85038152355161
H          -0.55550834784141   -2.29679829065619    1.35775004099595
H          -1.14086904098270   -2.23454711528069   -0.07382456474676
O          -0.07416945020990    0.51655574754307    2.84700890588912
H          -0.33503007884238    0.72134161144987    1.92146521875697
H           0.52400023455202    1.21766611502978    3.11192663967784
O           2.04477103380481   -0.11187874476939    0.15683608818611
H           1.97985850723525   -0.90826734063744    0.69744980313913
H           1.17128173364772    0.31975983121362    0.25408687488915
O           0.94914154494442   -1.85073027634586    2.18788774242345
H           0.59554247238962   -0.99264739945778    2.52451387562398
H           1.09105442633115   -2.40710449026296    2.95506472221922
N           0.26290332771495    2.20295465052313   -2.20734603787551
H          -0.75297494974869    1.92495834634099   -1.96183480504133
H           0.30075824231617    2.81375391678764   -3.01740621374447
H           0.65783188368586    2.65169304368567   -1.38468290368231
