    26
        -50.44471281  Gyration_radius:  2.58294646526 Dipole_moment: 7.395
 S           0.99696693035264    0.68884298363167    2.10168284958058
O           1.20858133284589    1.65086499580732    1.04214064750201
O           0.33445437344914    1.15718783175731    3.26549475731744
O           0.16913260840983   -0.50078372739061    1.48651191529399
O           2.31264023936158   -0.00680131066884    2.42495624872865
H           2.81166400212191   -0.05440912734934    1.51626249522309
H          -0.77805834888647   -0.21860171505202    1.37030351210620
O          -0.68575660280956    0.07750378731836   -2.32388375987774
H          -0.71133542627565    0.82563854901030   -1.66633493220700
H          -0.70245565642622    0.48867132625627   -3.18924186772227
O          -0.90192331777901    1.99059084234418   -0.53835924437949
H          -1.58933554135877    1.70809634073475    0.07551890005800
H          -0.07936397273575    2.00719482678485   -0.00930322110697
O          -2.32445267095964    0.16200162449232    1.10438657495118
H          -2.53547306326540   -0.41014358072867    0.32121595895146
H          -2.83226324798574   -0.16785249375898    1.84787086291797
O          -2.71928176723353   -1.21436215012198   -1.11850104788477
H          -3.49363137734516   -0.98606048978259   -1.63597642457139
H          -1.94397683560660   -0.86863565218046   -1.61259319526278
O           3.21752162624560    0.09095695726866    0.09067015860884
H           2.65022443817197   -0.57841929139052   -0.39583750375859
H           2.75915442856892    0.93627047272918   -0.00977611863042
N           1.44109770045161   -1.55574616373983   -0.99002771085189
H           1.65300972458964   -2.45372246649438   -1.40484587562999
H           0.82049345936182   -1.05422736405610   -1.61941982270152
H           0.92236696472238   -1.71405502543544   -0.13291415666455
