    26
        -50.45192205  Gyration_radius:  2.49083932007 Dipole_moment: 5.217
 S          -0.24705841220655    1.85051253269694   -1.45115696535631
O          -0.67510398478585    2.29652386405356   -0.13777160299485
O           0.13358430761536    2.86247383858323   -2.36417745914560
O           0.91474612520788    0.83742574993579   -1.22064799090931
O          -1.32816575946116    0.96489718360667   -2.07962882293600
H          -1.62104108736416    0.23209386366299   -1.43155249242705
H           1.33081564006824    1.08255143576557   -0.30880092415031
O           0.34256692152059   -0.33308389713320    2.35871556699237
H          -0.54120096498723    0.06518563248160    2.32570398817712
H           0.30989800844130   -1.10042075134833    1.76341372245463
O          -2.01241229739854    0.96933721371168    1.66117897238700
H          -1.52833148261075    1.53649672815541    1.01145990676070
H          -2.69545253813335    1.52000617052349    2.04585360758056
O          -2.01725889650630   -0.80640861936861   -0.39002680091812
H          -2.20608233541365   -0.28394591651004    0.41067476717104
H          -1.27042671282951   -1.39312567549679   -0.15259576452428
O           1.68652457733557    1.51669003547666    1.06663561578480
H           1.07467783485205    2.25957038518810    1.12351547920552
H           1.29890280942117    0.80292101287326    1.64582887406961
O           0.08396044242145   -2.31095819333451    0.43587686871885
H           0.78948430707866   -2.18872985753579   -0.26418475145230
H          -0.01058399786305   -3.25354772375756    0.57886890452841
N           1.88688492141396   -1.89601599918499   -1.46580094543078
H           2.86189473966377   -1.94208216185972   -1.19737399785507
H           1.65596287992600   -0.91585113413642   -1.61106164777472
H           1.78321494461904   -2.37251571706745   -2.35294607796260
