    26
        -50.47153653  Gyration_radius:  2.41198545133 Dipole_moment: 4.074
 S           0.32717483097555   -1.35085836879939   -0.50033152533233
O          -0.78618057308826   -0.38951750984608   -0.46469288278522
O           0.90857663821610   -1.41576284114065   -1.82952856010343
O           1.32120180084277   -0.99826285092073    0.51068689874533
O          -0.24727242102665   -2.74234602670286   -0.16616528105634
H          -0.78464535473408   -2.61362090439691    0.66718276720657
H           1.75449984873559    0.61967546999242    0.35773908433693
O           0.20831391191275   -0.50366172029469    2.85934482101130
H           0.79820233949271   -0.74111751287831    2.11417293028662
H          -0.14118468020207    0.36712781117130    2.61275623218242
O          -1.45344436482182    1.37346846588291   -2.30635818924230
H          -1.35172904285659    0.61359173361884   -1.68761011680891
H          -1.91245686440637    2.05692486642653   -1.81463735459123
O          -0.85162553054806    1.53852471312374    1.28667852566385
H          -1.76503430834106    1.68336068248190    1.53749506915637
H          -0.85904613442701    0.78416956664746    0.64493084796067
O           1.73330361617209    1.57983730418240    0.14171396904242
H           0.96303520132338    1.91681227581507    0.61868163071241
H           1.49472736643234    1.44248054808692   -1.42285190996354
O          -1.47646709964436   -2.34752160467246    2.07664758128736
H          -0.90781924308892   -1.63264802036590    2.47645667660919
H          -1.36008884194027   -3.12142915495128    2.63165331196409
N           1.19492247068870    1.09000040810898   -2.38254327115880
H           0.20879405066171    1.39071407053286   -2.55848769771503
H           1.15558400520448    0.02298961758511   -2.28285238476655
H           1.82865837848052    1.37706899129546   -3.12008118265719
