    26
        -50.45025693  Gyration_radius:  2.47455078829 Dipole_moment: 4.736
 S           1.46993902540725   -1.62409352077378   -1.03104945032259
O           1.20616385335805   -0.21095827561792   -1.18660792340786
O           2.78152487770456   -2.05339014674415   -1.34789426748901
O           1.08243366178509   -2.02358507399031    0.42227725863956
O           0.43206716342742   -2.42499487451537   -1.84092879259367
H          -0.44704684845279   -2.15251224392779   -1.45419566059590
H           1.18780247277009   -1.26766765289828    1.07679169459852
O          -1.77489879960123   -1.68081907582102   -0.71296983397279
H          -2.25891758050241   -2.46332229666371   -0.44281594161794
H          -1.62359347461806   -1.15093246510143    0.12553678395203
O           1.28131755851405   -0.11910990265410    2.13787167081656
H           1.34825634269675    0.75630389129456    1.60629588281580
H           2.08941302417392   -0.20666331301975    2.64534528655465
O          -1.57019514670464    2.21012181625336    0.18644439632639
H          -1.42282874917060    1.76307492664815   -0.68749515668156
H          -2.41509335475977    2.65680097617358    0.12125104391464
O          -1.16149041318623    0.76793786050629   -1.99167749171528
H          -1.68740491547718   -0.02934075365737   -1.85915093858986
H          -0.24071639160986    0.48757775318696   -1.82783725983522
O          -1.46321643069723   -0.21733693890449    1.42430187435599
H          -1.51654263331793    0.70196912205775    1.09229739123024
H          -0.60521026128714   -0.29024110064354    1.85921592473054
N           1.36025612995270    1.98597465901259    0.63944493542081
H           1.47564786892634    1.45592006864910   -0.22169776378273
H           2.04083452328685    2.73368170047101    0.65346429744667
H           0.43149849738293    2.39560486068284    0.61378202980244
