    26
        -50.45018970  Gyration_radius:  2.49697910286 Dipole_moment: 5.269
 S           1.92680685769339   -1.15423113842317   -0.88429696779234
O           1.94224824857592   -1.31906805840334    0.55199549829065
O           3.13030910098490   -1.41017819340319   -1.58061994137479
O           0.79821926801427   -2.00968522102643   -1.49319553918006
O           1.41361373912554    0.29424045136573   -1.16866815548304
H           1.60552499209418    0.83191728246444   -0.32493782560302
H          -0.05466337561754   -1.90645794732681   -0.97258969211782
O          -0.59709828459902    1.07183612495564    2.14616537999527
H          -0.47374141751318    0.08330889207717    2.24325561209029
H          -0.86623573460089    1.39786488230730    3.00572256268464
O          -2.15526941997892    0.68188609116871   -0.11948487061208
H          -1.68775211678897    0.99477999581844    0.67233308731262
H          -1.75298574462793    1.16291191288392   -0.88427961164135
O           1.86843583775174    1.32993553957958    1.09264547710789
H           2.21959210186782    0.47325015442082    1.37464002612054
H           0.97745684409406    1.40007518647170    1.50044843116481
O          -1.44679264742802   -1.77786956347754   -0.24692740661713
H          -2.10797149493020   -2.25485693954253   -0.75105372034549
H          -1.75381231083233   -0.80890728377707   -0.22060107602488
O          -0.17264075075013   -1.50348705904712    2.19218446909303
H           0.68842954968522   -1.55157331460295    1.73533475442722
H          -0.80489873256825   -1.85019757825838    1.54725374441409
N          -0.85863922768977    1.87359264657505   -2.16918540401047
H          -0.65725581841634    2.86042955786104   -2.06789278746158
H          -1.19808785050611    1.72218559927000   -3.11059466335143
H           0.01720841696951    1.36829799006765   -2.06765136107533
