    26
        -50.45318505  Gyration_radius:  2.46040388357 Dipole_moment: 1.624
 S          -0.60847582954565   -1.33168852752122    1.18320106768301
O          -0.36465551982089   -1.02864823847412   -0.20383527001184
O           0.30235489260685   -2.25681184180850    1.76953957433967
O          -0.60992435701213   -0.00134010710552    1.98223915962651
O          -2.04722265398188   -1.82510425582893    1.36248295421844
H          -2.60332546943997   -1.11679983838180    0.90568196350935
H          -0.13583596911084    0.74279938201818    1.49203259343854
O           0.57888977084778    1.92542848849628    0.79318848742219
H           1.09268327694381    2.44235569239285    1.41583164996362
H           1.24404154521385    1.53563254298318    0.12260485569403
O          -0.02430274745432    0.22345367846278   -2.49385853866137
H          -0.30261000380474   -0.32236714605299   -3.23038432284516
H          -0.15203525677534   -0.31517746924298   -1.68654794836352
O           2.19377542325999    0.88172224959659   -0.88087973299965
H           2.40509273782727   -0.01000150393817   -0.49594102265267
H           1.61105537155049    0.71658491322694   -1.63597266276782
O          -1.63573658405639    1.84109866267561   -0.89936879594376
H          -1.16782386964441    1.40704976782916   -1.63140358561988
H          -0.94239075899477    2.06829580507981   -0.26369253768204
O          -3.26783874982974    0.13482455266667    0.27510652407536
H          -2.65914173763238    0.74765686362291   -0.22099757224327
H          -3.67561903815278    0.66806496200445    0.96076400232913
N           2.67123364572670   -1.52595753425392    0.22952323160205
H           3.44747789452978   -1.57461502734866    0.87869536150539
H           2.82052212043867   -2.24267464218780   -0.47049699966057
H           1.82981185611043   -1.78378141891683    0.74248757404439
