    26
        -50.44601477  Gyration_radius:  2.46929847585 Dipole_moment: 6.643
 S           0.02271876201523    1.28537612768236   -1.98473981877837
O          -1.14623904050971    1.21246725147770   -1.12825833549671
O           0.07776681778107    2.37436485225439   -2.88736248722731
O           1.28309789665139    1.20825737014068   -1.11014046140615
O           0.09573151150905   -0.05406069984973   -2.76734470742164
H          -0.27376262975577   -0.72567989316381   -2.14122389492176
H           1.16883942983769    1.47979960314885   -0.09211631352161
O          -1.03951422062528   -1.73939687123341   -1.10886808255996
H          -1.11309397905969   -1.43050077254982   -0.18443457126700
H          -1.93223769518970   -1.73100691539083   -1.46077607556509
O          -1.73894826843208    1.71670999663659    1.32426102821659
H          -1.56676010955123    1.59704158877772    0.35554346707420
H          -2.40771891003887    2.39888334124753    1.39843274150739
O          -1.51014458447430   -0.98020574240449    1.49796640225531
H          -2.15944533021743   -1.36773398751298    2.08666551477105
H          -1.64505694518724   -0.01172078609847    1.51757670105890
O           1.02512693089789    1.70250613732022    1.31310481381770
H           1.22726834564112    0.79461615980339    1.68384083896878
H           0.08272415230145    1.85416590623252    1.49236598782198
O           1.26174986278810   -0.80539993059300    2.00296931301192
H           1.66759960908587   -1.17224315244161    1.18180510783880
H           0.32727840717034   -1.04949851852983    1.95259613913603
N           2.03762558639319   -1.61846858068852   -0.46503325971015
H           2.91187087222444   -2.08206775796513   -0.67584129431877
H           2.05409942884092   -0.70500327958211   -0.90831893540647
H           1.28942408990455   -2.15120145672054   -0.89266981787963
