    26
        -50.44938739  Gyration_radius:  2.46572072729 Dipole_moment: 5.979
 S           1.30088456529004    1.90294231900460   -0.82924708337809
O           1.26316212554180    1.72087422627408    0.60589278985128
O           2.47374354769222    2.49037557376516   -1.36333262120942
O           1.02402771845154    0.52069095124525   -1.48702001635645
O           0.05760565445146    2.69988068611168   -1.25870270322913
H          -0.70402180855111    2.24619780721114   -0.77635210900949
H           1.35931897474101   -0.32072284747814   -0.91505704511555
O          -1.14734706014607   -0.19596078196433    2.06917483346485
H          -0.18404508013305   -0.26663390777993    2.19995324273596
H          -1.48606903751990    0.31089318619021    2.80924595808133
O          -1.42273890005767   -0.33745529741824   -2.32143889284209
H          -0.49040772847497   -0.08861745997583   -2.17536387675650
H          -1.67296494477846    0.03114389382540   -3.17037388818214
O          -1.77588723647205    1.30203135287025   -0.15573647955703
H          -1.49394964852093    0.80287890557757    0.63540061232553
H          -1.88027180435708    0.64573036896877   -0.86821501494275
O           1.59617962760130   -0.20299240545497    2.27228895690470
H           2.27224367685022   -0.00143635272112    2.92072415729654
H           1.53236388847145    0.58989979130860    1.68044168282479
O           1.60917204044640   -1.47854706781675   -0.14626135767385
H           1.74669717627567   -1.17364306325174    0.76825121176709
H           0.69630964749843   -1.90504881503845   -0.14771833775624
N          -0.90063753771994   -2.30024868057324   -0.09192230311720
H          -1.16806116076955   -3.27300894706027   -0.02462167829711
H          -1.31480321477523   -1.91373790649633   -0.93310670273644
H          -1.29050347103510   -1.80548551934110    0.70309668486347
