    26
        -50.47004708  Gyration_radius:  2.43955974292 Dipole_moment: 4.087
 S           0.25322782895147   -0.63546796141316    0.78611464317267
O          -0.61488363857331   -1.68407251972700    0.24946676051797
O           0.00345734760119    0.63860934088491    0.09365736038109
O          -0.18750839924094   -0.44909644679746    2.25777844561750
O           1.65450517041510   -0.99043175537788    0.73987729298853
O          -0.11721363024417    0.15453248949287   -2.54597193726906
H           0.05733160410491    0.53350559231363   -1.66183133533316
H           0.42328484059414   -0.66307457367585   -2.55997579184676
O           1.11819041101800   -2.10314547839110   -1.77615061338138
H           0.48049562913159   -2.19835953576284   -1.04843673133632
H           1.95307210924815   -1.93473566670351   -1.32934625381081
O          -2.50188826564304    1.44721467086931    0.10037750246828
H          -2.52098381640093    2.39438856670535   -0.04433911953921
H          -1.55562027451865    1.20755016968235    0.23614993743778
O           2.59003256385765    1.46451842068722    0.78127437115736
H           2.44010176204048    0.49767183895654    0.70541726737255
H           1.89026829253398    1.85307502188333    0.24776296127223
O           1.49324657085561    1.30038566050688    3.17339689979871
H           1.98082338163231    1.51120911791596    2.33596876317065
H           0.40128419407185    0.24666276937465    2.66566795093377
H           2.12264914576241    0.85194061986181    3.74235376778686
N          -2.31644144821941   -0.70327927075038   -1.45286239577116
H          -1.75915363215273   -1.22606765386353   -0.71150131812321
H          -1.55626190800289   -0.36604141858404   -2.12955131053998
H          -3.02706923104326   -1.28214000035499   -1.88513355421047
H          -2.70494662779927    0.13464800227660   -0.97016355294061
