    26
        -50.44407804  Gyration_radius:  2.48157967354 Dipole_moment: 5.592
 S          -2.37728201416231   -0.43649029311692   -0.16309858810250
O          -1.77335462204091   -1.24140467577485   -1.19352198718943
O          -3.71135173880609   -0.72335293096963    0.20735358412775
O          -1.43794666406559   -0.48463220104000    1.08727767364220
O          -2.26296538483280    1.05679591863859   -0.54535814395047
H          -1.34066096877658    1.21758644612449   -0.93038869769698
H          -0.88199406599632   -1.34016047883639    1.09796259521216
O           0.10833918451762   -2.47878856441409    1.16068054557469
H           0.38364379634977   -2.66069586593354    2.06144397176546
H           0.89894425165202   -2.09075600276928    0.68968872576502
O          -0.73388601343532    2.11642414777121    1.75052075571636
H          -1.06361990729252    1.20716352000994    1.70468219804003
H          -1.33271135251439    2.63402797221494    1.20717969531206
O           2.02899954914272   -1.22099385851683   -0.08685744127003
H           2.01243830462064   -0.28743186896951    0.19506861449430
H           1.67625127737691   -1.24515931484780   -0.99192251226534
O           0.12466832794052    1.37236320442589   -1.41168509953330
H           0.72116999260384    1.37740549318541   -0.64702443394194
H           0.34646267625327    0.57768680469533   -1.93177512112008
O           0.53542549479584   -1.11424632809264   -2.38278279296281
H           0.50581174403604   -1.57195441185811   -3.22391466248340
H          -0.33691342681963   -1.28014404042965   -1.94781752911440
N           1.92880510834808    1.44767875850944    0.87443452948731
H           1.06707156779772    1.77875588086994    1.31761525979340
H           2.38643414111868    2.25945836038379    0.47289804465503
H           2.52822072218196    1.13086432875297    1.62934080603943
