    26
        -50.44594966  Gyration_radius:  2.47464871727 Dipole_moment: 4.617
 S          -0.30393362027961    1.87508206601494    1.16943375342433
O          -0.32466405761089    0.48530911788157    1.56951642534879
O          -0.11712485142875    2.82165137591731    2.20470029567597
O           0.73969815705579    2.03740344409958    0.03360168804616
O          -1.62277987399491    2.16876416848158    0.40595627828890
H          -1.45720419768243    2.05600512182173   -0.58305225889487
H           1.54613941248977    1.42376599490217    0.21580831411159
O          -0.80025202806154   -0.87638699928485   -1.90851260082441
H          -1.19044498182901   -1.48516115732652   -2.53775439302238
H          -1.36472866221433   -0.91322432278551   -1.09037689075055
O           2.68009171385461    0.47766816198696    0.32777247087533
H           3.43194442282460    0.74292743644104   -0.20602887404461
H           2.32416703051198   -0.37548916623810   -0.08166976683617
O          -1.02767460640798    1.79596793299999   -2.06608421394265
H          -0.13943726112583    2.16238511438747   -2.02028183102425
H          -0.92038908200669    0.82179032639089   -2.13363977261921
O          -2.26678537433837   -0.70521557974044    0.26307157588203
H          -1.56279567096879   -0.34127996272667    0.84578702186047
H          -2.92539754437537   -0.00911044511802    0.20052136608214
O           1.64586488799433   -1.62890525236782   -0.74857920654078
H           1.28795665447283   -2.03884426846898    0.07929751327394
H           0.86233848504550   -1.34356997433960   -1.24384952233562
N           0.50918556036255   -2.31886754399791    1.58498764999107
H          -0.37908075961175   -2.80501743815251    1.57985722658318
H           0.31523710299175   -1.34107425056752    1.78931858130007
H           1.06006917432751   -2.68657389019912    2.35019918009885
