    26
        -50.44562650  Gyration_radius:  2.49096667867 Dipole_moment: 5.945
 S          -0.52401637629137    0.96735947451371   -2.21998554601935
O          -1.19314429751555    1.69813934099800   -1.18002247325888
O          -0.16980625839844    1.66696671150781   -3.39896000344670
O           0.76728510947648    0.32628469563424   -1.57510430918909
O          -1.32163732786884   -0.30109530642479   -2.57223217682455
H          -1.54954487900635   -0.71792185240370   -1.69048669771042
H           1.07500097526320    0.86022577965448   -0.78341853200539
O          -1.60758241430692   -1.36594592586182   -0.24668555606846
H          -0.75581263032141   -1.80323304721279   -0.12042102202362
H          -1.71922119894613   -0.76816712545175    0.51680325060480
O          -0.71151592552996    2.46623721218984    1.32063641058246
H          -1.07531214205833    2.42159358934917    0.41808595461832
H          -1.08572475885145    1.68832263740461    1.76893853294334
O          -1.36568207535671   -0.07366295921082    2.14881308406378
H          -0.42363022790237   -0.38450056055594    2.11907727784347
H          -1.74320772884764   -0.40782561444645    2.96305923247674
O           1.57511239747546    1.61601596382740    0.51376360051815
H           2.12751930851599    2.36569611209329    0.28689690099129
H           0.71776188947557    2.00057458672116    0.89770922106460
O           1.12109469295994   -0.85878626308722    1.75984162402816
H           1.16076513890061   -1.48263332805503    1.01186357965869
H           1.51604174065038   -0.03543368484760    1.44030797960052
N           1.18020114777904   -2.40712322851454   -0.59299254648356
H           2.13746774672433   -2.72915001055204   -0.50185569122263
H           1.19451982153843   -1.59838635548611   -1.21192259298984
H           0.67306826243388   -3.14355081178722   -1.07170950174737
