    26
        -50.44749914  Gyration_radius:  2.5293693342 Dipole_moment: 1.926
 S          -1.56760042055551   -0.80318867022912    0.55348252885960
O          -0.38581068656458   -1.14704186772231   -0.19723420136545
O          -1.59025747358166   -1.22385927393342    1.90747268622279
O          -1.73659002670585    0.75629858564471    0.47075249750141
O          -2.81180852605752   -1.27387185679434   -0.19572378354644
H          -2.63301436113438   -1.14428114717531   -1.18621754287794
H          -0.94153799747081    1.19348690302585    0.92340462135370
O          -2.34345681401399   -0.77226055633420   -2.65384088435698
H          -1.76442048443341    0.03022596354408   -2.60540228449423
H          -3.14371808252461   -0.50568746180193   -3.11246304297095
O           3.47528305773460   -0.43848193091433    0.38466190072029
H           2.84754981582656   -0.65234962488550    1.12237154609344
H           3.74723228926166   -1.27939513744354    0.01422274666808
O          -0.98537265740084    1.43664334828938   -2.13473195416491
H          -0.03287918363310    1.31272169393907   -2.01776819908140
H          -1.35861760826296    1.44773663752874   -1.24159568752729
O           0.41522958207762    1.82528160731658    1.30217358666210
H           0.43295686973924    2.78335253668385    1.25052026219523
H           0.92800174510452    1.48231871826780    0.50999017782134
O           1.40994925503225    0.71879884801851   -0.83102715173077
H           2.29684791982393    0.40585688482476   -0.53860701234483
H           0.83257253548587   -0.06276589970623   -0.71992047803839
N           1.48393007152972   -0.99852283802915    2.12363579187330
H           1.50477236448533   -1.65901140604254    2.89105860045724
H           0.76504746701038   -1.31548645225264    1.47951569470171
H           1.15571135928763   -0.11651761377044    2.50126957120148
