    26
        -50.45122986  Gyration_radius:  2.47847919985 Dipole_moment: 5.274
 S          -0.98721008121956    0.98859774471738   -1.99987932406926
O          -1.02243857467053    1.81970492468281   -0.81783097091221
O          -1.09367545851696    1.64199552783319   -3.25087555344399
O           0.29144143045704    0.10881673234881   -1.93900763745857
O          -2.09531279613064   -0.08118768310950   -1.86922037103112
H          -2.10616854776629   -0.33786965859884   -0.90290883340020
H           1.04801339592050    0.48998304223499   -1.35369350824180
O           0.57704025850292    2.57944604832976    1.07802132579300
H          -0.08080179598142    2.37801471217897    0.37046193233607
H           0.54933438073397    3.52752962084307    1.21256444171159
O          -2.13911487124177   -0.72050997978388    0.63545920093072
H          -2.95289550927496   -0.35652945386178    0.98872358117630
H          -1.40967703161480   -0.35799707565475    1.21533111411795
O          -0.23437979815436    0.17349406277339    2.19912884684508
H           0.53979604382747   -0.37878761355880    2.00149350637171
H           0.02178779533762    1.08041735646235    1.96997665988762
O           2.12269861482747    0.88011380302687   -0.37915790184154
H           1.74291625895998    1.58555658102022    0.17667199152231
H           2.17040515780379    0.08782997467026    0.19391670448120
O           1.82960076147817   -1.33503374623514    1.15654084251308
H           1.20048417526356   -1.82574551812493    0.54411039357584
H           2.48968002926726   -1.96486525965049    1.44688566457794
N           0.08698908444956   -2.45422644045567   -0.48676531122550
H           0.13372611210906   -3.39601516125463   -0.85415501303421
H           0.14528917147239   -1.80730781453748   -1.26853061758104
H          -0.82752818583925   -2.32542471629557   -0.06726117360097
