    26
        -50.44610038  Gyration_radius:  2.50656659037 Dipole_moment: 3.077
 S          -0.83735543944642    1.11225404453142   -1.62446208737057
O          -1.52628260530879    0.52678461286696   -0.50194009034652
O          -1.51128082124995    2.12426542378297   -2.34740383515825
O           0.54169061074692    1.65189092837563   -1.08311584984332
O          -0.35963072456907    0.00934620714376   -2.57418876597900
H           0.07721256586820   -0.74536151477719   -2.03281490279322
H           0.39169044994329    2.04061863959162   -0.15202856586489
O           0.38085436620057    2.45535581676063    1.30696189301884
H           0.86993349373762    1.68525712798293    1.71662025010516
H           0.89127203863153    3.24413715944941    1.50021077542112
O           1.71961529963361    0.32663044144789    2.02394829527998
H           2.28190275253030    0.17182749170770    1.25143807094075
H           1.00540087361599   -0.33157575992264    1.95982800987331
O          -0.37764356851690   -1.17444633113032    1.15810386778882
H          -1.15174197653570   -1.73880303115923    1.33548278862605
H          -0.77889741326818   -0.41869617961360    0.67699548920470
O           2.76215748039063    0.15125795242956   -0.61313482001603
H           3.54631099724549    0.40033472706128   -1.10433978368894
H           2.04806936761568    0.75917235676349   -0.88440891496273
O           0.81158457164431   -1.72974186311698   -1.14617525874472
H           1.68119474792300   -1.32354327426509   -1.00193345857484
H           0.36301070873753   -1.69925486191441   -0.26638529937049
N          -2.97271533384358   -1.93334602387661    0.73824553450979
H          -3.20451121197823   -2.66296920035354    0.07509974370288
H          -2.89543881208855   -1.06380532896383    0.21695678304671
H          -3.75640243765999   -1.83758954080616    1.37244013119242
