    26
        -50.44382184  Gyration_radius:  2.49391324579 Dipole_moment: 6.730
 S          -0.50297771947693   -0.66107296829976   -2.15881555884508
O          -0.23161111560743   -1.42619572809817   -0.95945911550187
O          -1.14109093332891   -1.36168880857986   -3.21031569422395
O          -1.31902090448427    0.59919176398431   -1.72555817436667
O           0.80981999686149   -0.03081355504721   -2.64126030309505
H           0.93823389747989    0.88316771015500   -2.17126576227176
H          -1.91442222563939    0.34774739918247   -0.95816991514927
O           0.95219879777007    2.17140740579940   -1.43615860818055
H           0.03259290940486    2.43544180820745   -1.52607753676395
H           1.08529778497197    1.92153246789850   -0.46038985453109
O          -2.76929260870050    0.13591882076667    0.33925254374786
H          -3.32981389222216    0.89692736893081    0.50444107885952
H          -2.14045488354227    0.07085170275153    1.09987346335297
O          -1.09099008566441   -0.02344838738522    2.40606741895382
H          -0.60310548165034   -0.85438998526425    2.15115965716038
H          -1.54108610325148   -0.23077660533854    3.22692516601181
O           2.27043930648663   -1.10395476862676   -0.08329356532735
H           2.86821846207044   -0.98071554435624   -0.82209978720021
H           1.38766664402047   -1.24938547970531   -0.47999063826199
O           0.12898122417851   -2.20635865270145    1.60931230859641
H           1.08149903723455   -2.09745958569662    1.51439061435917
H          -0.20836258903008   -2.17705086229648    0.69913601278387
N           1.25380345152301    1.37201579679384    1.03966003861440
H           1.75221169680371    0.50221572131871    0.85192199338889
H           0.40308668025686    1.13210328210328    1.53724996449087
H           1.82817865348407    1.93478968339835    1.65346425321024
