    26
        -50.45002648  Gyration_radius:  2.51482672627 Dipole_moment: 6.063
 S           0.42021932839480    1.40293495902271   -2.11857377856259
O          -0.89713211402335    0.81542491631175   -2.04689499470589
O           0.56122007519682    2.57498058533125   -2.89974756894299
O           0.92514792916762    1.63212601600203   -0.66545920408191
O           1.41231219248034    0.32400788715269   -2.61806982958554
H           1.22698461438597   -0.47180017649291   -2.05098882155083
H           0.16528821124649    1.71240813956097    0.02253545251457
O          -2.77631672226710    0.32675376062575   -0.32905054817402
H          -2.12233812238939    0.48082974740218   -1.05184818706406
H          -3.63444915158280    0.54964416691498   -0.69201920495108
O          -0.24370178094833   -0.48785165675508    2.58817849084177
H          -0.74412473626669   -0.66011763728430    3.38662127953689
H          -0.62875108789674   -1.07757855280813    1.88443711021280
O          -1.28643459139050   -1.82475734447181    0.57681143484684
H          -0.57916594760787   -1.83399427133126   -0.08823849806824
H          -1.94849589972165   -1.19476169574115    0.24938008288027
O          -0.88421674679417    1.68710194593715    1.10371821666632
H          -1.68451832791916    1.32012416949728    0.68558180039509
H          -0.58486345038386    0.99883115260791    1.73577675727767
O           1.03332448342967   -1.64858984378087   -0.96907813655241
H           1.52486196348073   -2.43061821080411   -1.22696813552181
H           1.53278322931566   -1.22770205473757   -0.18391683289905
N           2.23423003075912   -0.42391412981512    0.99087835892996
H           3.16728739618360   -0.61818934985400    1.32925766452750
H           1.59453217902016   -0.44110648512484    1.78007735881213
H           2.21631704612923    0.51581397264188    0.60759973322326
