    26
        -50.46898397  Gyration_radius:  2.47110101716 Dipole_moment: 3.725
 S          -0.79129432661747   -1.14684255766358    0.05707190394030
O          -0.88974443081351   -0.02762243236681   -0.88712265556402
O          -0.42163392543373   -2.38039370296312   -0.58356083900796
O           0.15725485951580   -0.77654394438981    1.12962134524097
O          -2.17476334136973   -1.35909864618965    0.70798366050852
H          -2.52331054583834   -0.47409048340659    1.00488909571745
H           1.34092648409271   -0.02186941980891    0.50675171748895
O          -0.10039618477521    2.34923769676580   -0.15295870108958
H          -0.57337615656173    3.02056644297951   -0.64581842942776
H          -0.47947345388302    1.47969531614794   -0.44933194331221
O           1.87781551457825   -2.74214837480355   -1.76968378797356
H           1.04871490998147   -2.70432394776244   -1.23763748955101
H           1.77920356743360   -3.50178091164810   -2.34595949296405
O          -3.02518376633953    0.88584338539925    1.69061092535506
H          -2.16015970213484    1.20357284945403    2.06525930465262
H          -3.58246445771571    0.66290112175054    2.43850650793171
O          -0.56961036752156    1.44638733642614    2.40478522939925
H          -0.35272240148850    2.03323825220797    1.66264390429704
H          -0.25961773990784    0.56255268052672    2.11754029356736
O           1.32214025746804   -0.22212787293549   -2.39997054598132
H           0.39072301470070   -0.20239091144324   -2.10208639804313
H           1.59260399606798   -1.16716248028721   -2.36606996276758
N           1.98831147797378    0.62345025094320   -0.05249501310810
H           2.94340724351428    0.59341349489905    0.28584488331556
H           1.57540469249128    1.56439593517074    0.00605219169901
H           1.88724476256587    0.30114090298073   -1.08486572434306
