    26
        -50.46585436  Gyration_radius:  2.38184832383 Dipole_moment: 6.672
 S          -1.32115442005642   -0.90561735558664   -0.01389009735524
O          -0.44569647379715   -0.14462250092765    0.90698044340760
O          -2.67492537712370   -0.95762816501471    0.45928061013749
O          -1.28622691473035   -0.06076131154371   -1.36295073654522
O          -0.71533362782955   -2.16701007645014   -0.36511830517507
H           0.89623593439556   -2.46233503238725   -0.67240220307457
H          -1.48579803843275    0.89243963578398   -1.08842989000305
O           1.81308683232150   -1.23925592665528    1.71906337605368
H           1.65195810649160   -1.88892024342272    2.40446260568127
H           0.93016117869072   -0.87408634521692    1.47996320333878
O          -1.53638516370038    2.32306674799096   -0.50257323796784
H          -0.64699055576584    2.55911326301431   -0.21714042817892
H          -2.05842117649786    2.13425001213436    0.32012131224160
O          -2.70084990676961    1.36922361670527    1.65393005584361
H          -2.86655695471605    0.48869468446203    1.24502503337198
H          -2.01110586546127    1.20858176571245    2.30227951665397
O           1.29742704005633    1.63253506174508    0.21343048095656
H           2.00044289994594    1.56973636583595    0.86340809636930
H           0.59365578388075    1.00622745397626    0.53222351742709
O           1.86222671250450   -2.27070850001211   -0.75590257137552
H           1.69301243606571   -0.98730881879138   -1.48516265072559
H           2.11492231690911   -2.00321528675225    0.15275293818388
N           1.33758644661112   -0.02681077656007   -1.88552808765571
H           0.29670034636064   -0.10595488237181   -1.91394421765083
H           1.72116137391366    0.18108596317199   -2.80100693682765
H           1.54086706673600    0.72928064115682   -1.18887183709647
