    26
        -50.45284276  Gyration_radius:  2.51134605998 Dipole_moment: 5.085
 S          -0.04813537796420   -0.70821211455627    1.35973806894545
O           1.13028828943810    0.06343114279213    1.03305996742978
O          -0.67823116215302   -0.34922382835958    2.59302633592264
O          -1.04430195125326   -0.59166711921746    0.19859978105163
O           0.28879604888848   -2.19653613647912    1.37568226254971
H           0.77998443347599   -2.41496602080034    0.50895316345850
H          -1.38327168346905    0.43406947736961    0.11270821574783
O           2.03982702907759    0.64642921039923   -1.43465828491569
H           1.74788264602605    0.34990840837596   -0.54966464527828
H           2.93649887328077    0.32254470239452   -1.53207060203028
O          -1.74117673201252    1.77331456949259    0.08735857529262
H          -0.87283512200003    2.25454398594979    0.06573226913214
H          -2.09662125368374    1.91885587242448    0.99579604452295
O          -2.36105916059483    1.71835613822226    2.66258427580491
H          -3.18926688506187    1.39544034529433    3.02147451121924
H          -1.70872816575285    1.00069107167515    2.79238853448663
O           0.74561111343489    2.63529272278677    0.20198794889745
H           0.99817338000121    1.88671078597005    0.76762498817077
H           1.19268143187851    2.46731844499018   -0.63629086014627
O           1.39152318485706   -2.77386135402982   -0.83356193379303
H           1.16168838800713   -3.68545165820909   -1.02487118386128
H           0.91134647387516   -2.20226200908036   -1.51867926301365
N           0.07574481381977   -1.20783734793320   -2.47219615022594
H          -0.21528876794819   -1.35012173373562   -3.43039431184509
H           0.68049524970385   -0.38899672645076   -2.43442163232365
H          -0.74162513388917   -0.99777083928622   -1.90990605518846
