    26
        -50.44271364  Gyration_radius:  2.55665079418 Dipole_moment: 5.385
 S          -1.22204082708317    1.84438192022299   -1.34615912235332
O          -1.25750424585959    1.63126358762189    0.08274391951875
O          -1.15410449121396    3.18789757999585   -1.78515834938889
O          -0.03783498694706    0.99520186814291   -1.90944100716993
O          -2.42957356061407    1.12331161704947   -1.97854055538317
H          -2.31410338464377    0.17551887887914   -1.68541139500039
H           0.85320782324263    1.34748397781001   -1.55013604300031
O          -1.49231297676108   -1.31327939130247    1.60762171188209
H          -0.90018638292374   -0.59265888366012    1.89761775725487
H          -2.36519865566416   -1.09210621537044    1.93685102869714
O          -1.58841594171796   -1.14881035982581   -1.11168760514021
H          -1.59993255458747   -1.21336992414445   -0.13281065625838
H          -0.71900825437300   -0.80517128020112   -1.34900500376450
O           0.07617035251732    0.85603262197282    2.17349588446729
H          -0.36240312149249    1.22884663159033    1.37256601034781
H           0.05331759295122    1.54967102227366    2.83438215760243
O           2.18013420459048    1.69186866211607   -0.93403416079147
H           2.28874720761581    0.98674450634965   -0.22575877036201
H           2.90493851229334    1.57516725443042   -1.55137510720973
O           2.26566321239117   -0.18079468523035    0.85398390784225
H           1.61418932390819    0.17163519040549    1.48203012234136
H           1.87976865436726   -1.02987580652767    0.53958107609429
N           0.97917485958666   -2.51279496292830    0.19986653851744
H           0.15084894999035   -2.44531673412762    0.78249145525974
H           1.52496597437392   -3.29675353350522    0.53572594246420
H           0.67149271605398   -2.73409354205666   -0.73943975648143
