    26
        -50.44787042  Gyration_radius:  2.49141436967 Dipole_moment: 5.397
 S           1.41293833660997    0.38052598222249   -1.70996199766377
O          -0.00005504585701    0.08354476936680   -1.58877481267812
O           1.82731811852957    0.86997032733195   -2.97292588321389
O           1.73069129697531    1.43547053074346   -0.58325566024313
O           2.24072326599310   -0.81623166500053   -1.27934047164717
H           1.90796915149407   -1.20503734362045   -0.36319236683374
H           1.00397275466695    2.14059577587461   -0.74661838640133
O           0.99493214321044    0.85330932754464    1.95113128375004
H           1.36334739678726    1.12406633977671    1.08650165167723
H           1.55313025188755    1.24391292676461    2.62579060734726
O          -0.30639108264418    2.84383111229559   -1.00589385618085
H          -0.84466027659721    2.56310988782910   -0.21329713000460
H          -0.63544868075917    2.32976169752987   -1.74894827586505
O          -2.25168901735480   -0.48939315654972   -0.36091993513445
H          -1.40306511547329   -0.33858006049049   -0.83163200710683
H          -2.94152571720661   -0.37930185469559   -1.01758036035823
O          -1.51780737662227    1.75110470840547    1.06288520006121
H          -0.75553681386891    1.44241483018027    1.57477025653496
H          -1.91963123299630    0.94836653927601    0.68518363885952
O           1.41933671548730   -1.67185514863177    0.92200194965667
H           1.19078445446257   -0.88452687828029    1.44433508182140
H           0.56654103054589   -2.18066953182335    0.79396795273427
N          -0.91141224818067   -2.91741534255056    0.61789992363408
H          -0.90080426577590   -3.57116707111750   -0.15405671587390
H          -1.54775021525663   -2.15997638159918    0.38050542152232
H          -1.27590780806769   -3.39583032076479    1.43142487160014
