    26
        -50.45643916  Gyration_radius:  2.45668906978 Dipole_moment: 1.855
 S           0.87792649466705   -0.32467122946986    0.97232334465586
O           0.62317025992310   -0.17661263570319   -0.45397554974357
O           1.98379516243325    0.45856873823867    1.43476744731972
O          -0.40477680299064    0.07315402696845    1.73263294683565
O           1.05810862107951   -1.77151010841365    1.32247230857035
H           0.19665994969693   -2.32265890670594    0.92410837674512
H          -0.88719748421525    0.86558988751482    1.31782851960779
O           1.33877327909187    3.03047249188333    1.30348396944140
H           2.05714281589367    3.57381566459185    1.63161876830705
H           1.62439945942964    2.10203969848106    1.43031807333872
O          -1.58718313094448    2.05347489822631    0.64176391656334
H          -1.45977380051767    2.78764050910577    1.24792304461070
H          -1.00193081489188    2.25828903695576   -0.14456126127992
O          -0.85595432256582   -2.90737631572158    0.27188688055966
H          -1.50985261517446   -2.19347871756487    0.11106084997521
H          -0.43243345437455   -3.05135860201357   -0.62224445100500
O           0.28248780475221    2.42968580370883   -1.13191104938010
H           0.55341235594853    1.49674825368086   -1.12200946180752
H           0.82826842576520    2.86550752216729   -0.45448741277611
O          -2.03791635325879   -0.65763650791964   -0.59099845584787
H          -1.11372794975298   -0.39347923306087   -0.73578993251864
H          -2.47043806254850    0.09850372971944   -0.18579600151806
N           0.44057194968213   -2.69609720802962   -2.03172006688968
H           1.27678970374505   -3.22556811917765   -2.24099661821725
H           0.72117919251989   -1.76151795054457   -1.74547542296047
H          -0.10150068324469   -2.61152471701426   -2.88222274260084
