    26
        -50.45514654  Gyration_radius:  2.5003017705 Dipole_moment: 5.067
 S          -0.17318996428996    1.09485085624508   -0.86464004868268
O          -1.24679530637972    0.31149463700046   -1.40125151892490
O          -0.41263169857843    1.76680530710630    0.37828587559592
O           1.04292330782641    0.14733022684349   -0.68527332914255
O           0.29989370264829    2.11187659635949   -1.90857854119902
H           0.27566605746001    1.59533238928451   -2.80650026549074
H           1.58258833671085    0.49972838398967    0.13028641364086
O           0.86307074647772   -0.80345163858249    2.88472519677208
H           0.96254046788388   -1.02116767343548    3.81209125552500
H          -0.06535304200387   -0.42669067121569    2.77912905184165
O          -1.46424897968111    0.22340705062484    2.41588384483704
H          -1.88753166928959   -0.45847978866851    1.84043873885642
H          -1.25548422073955    0.95250717389251    1.81382001147567
O          -2.12598586113610   -1.50429942293152    0.50876414453977
H          -2.02322702969539   -0.91227932043064   -0.25004606157641
H          -1.31255346540107   -2.04421897554316    0.52662326703400
O           2.02006019609807    1.08351081081078    1.42011142928147
H           1.32510459364437    1.75491060848249    1.45875187302776
H           1.74521035743408    0.37828942872239    2.05550920545040
O           0.47759691114149   -2.35585795249647    0.58458955425205
H           0.79207841103390   -1.69975590646550   -0.04715448161272
H           0.71201611027080   -2.00837400887634    1.45948020242505
N           0.04594927605915    0.53379027634198   -3.89386299561451
H           0.82966728460673   -0.07877218501577   -4.07647949356966
H          -0.35203727782696    0.83204248144308   -4.77453470589598
H          -0.65532726434231    0.02747131643707   -3.36016862285264
