    26
        -50.44662410  Gyration_radius:  2.55263717122 Dipole_moment: 5.533
 S           1.32797415863346   -1.20506744930224   -1.64897191067011
O           0.52130523068603   -1.71489674752234   -0.55721245332848
O           1.01844214234910   -1.71303862907383   -2.93389162136991
O           1.22811626108100    0.34529326095077   -1.61723095905822
O           2.80991622911649   -1.42336984221198   -1.32265889517756
H           3.00103374573775   -1.03601552080611   -0.41546767778476
H           0.27092067164126    0.62480855952367   -1.74703225546448
O          -2.14066473676969   -1.15987926608542   -0.44177108131632
H          -1.26255297654637   -1.57371278788407   -0.49732081775849
H          -2.11123704795676   -0.43366461125501   -1.07675891136808
O           3.19220187829629   -0.53896734576593    1.07992022011837
H           2.31576684005825   -0.21729383258556    1.37212012932713
H           3.39523057690721   -1.30211338769319    1.62609430016311
O           0.59890553066945   -0.07003569307782    1.53639425036392
H          -0.27551746711414   -0.08441309313255    1.96343266250502
H           0.51141588252513   -0.69046053247286    0.78658154610547
O          -2.11657796658381   -0.14295944473755    2.02683174350822
H          -2.20572077557937   -0.52623379993923    1.11908105611542
H          -2.57930760091000   -0.74455279775347    2.61097829135338
O          -1.20714742505738    1.14114852382943   -1.79712942976058
H          -1.19360605864677    1.62350930123216   -0.89456951784396
H          -1.29390149623809    1.80992060917244   -2.47844157944700
N          -1.00425587194422    2.21622619800496    0.56030116631238
H          -0.97334907347169    3.21013188290856    0.74590471739414
H          -0.11658980431211    1.80687301916744    0.84289780281368
H          -1.71080083649578    1.79876344661868    1.15791921419793
