    26
        -50.44618344  Gyration_radius:  2.5443098347 Dipole_moment: 5.128
 S          -0.85952060272971    0.19221367408589   -1.85852644440385
O          -1.70474884528561    0.00159458090072   -0.70394030136264
O          -1.49120779763003    0.25138881376622   -3.12281653213082
O           0.03388240028473    1.43806467233542   -1.60213070209044
O           0.20417253217415   -0.93214651433920   -1.87208958112138
H           0.58552549087916   -1.01504195505155   -0.94005307811890
H          -0.49719971916750    2.14179610976769   -1.07211444466881
O           1.08125847494751   -1.29499910190147    0.51957174058807
H           0.39161582768388   -0.96358404374225    1.12549975092185
H           0.93722435834158   -2.26776773011303    0.44153425789035
O          -1.03381841870975   -0.15730136545660    1.79527802905460
H          -1.79300116323318   -0.41407576468143    2.32021720711922
H          -1.36630421203180   -0.03714467519118    0.87019127479029
O           2.16038305562631    1.29159976633722    0.25309594944799
H           2.14137394353231    0.34202199616103    0.42692505824814
H           1.67423668797961    1.41808477051370   -0.57248519252784
O          -1.09175497099989    3.16589598606334   -0.16422942943037
H          -0.76753473938493    4.04212792604100   -0.38324974258216
H          -0.64799065387488    2.90814043935356    0.70236580756978
O           0.23832016414865    2.29754242847603    1.88177382203601
H          -0.21212865835703    1.45761764252651    2.06863232913378
H           1.06792866785166    2.04603210816565    1.42430924029621
N           0.33416992685273   -3.77620844194186   -0.22853368795511
H           1.01816883688456   -4.51581213041569   -0.32840801834882
H           0.09944841813411   -3.44237064282467   -1.15733958866155
H          -0.50249899391317   -4.17766855883840    0.17652226630512
