    26
        -50.46265584  Gyration_radius:  2.45915981359 Dipole_moment: 5.613
 S          -0.48579892237958    0.82257979831082   -0.27924797454982
O          -1.84703867736344    0.35800789174942   -0.02169275978631
O          -0.26751999535535    2.22749128662240   -0.07061530035934
O           0.40026911816397    0.08100850541228    0.85862239514037
O           0.01425435517588    0.29659879336137   -1.52953967092644
H           1.47350997518164   -0.33030081234461   -2.38204815600277
H           0.18547643844630    0.64973073583931    1.67562224895686
O           2.30694160548142   -0.80864891912333   -2.21649234046158
H           2.79559254494678   -0.17626140533321   -1.65655519120268
H           1.56466328133921   -1.77024600409624   -1.23793804982170
O          -0.30355044637461    1.79500933999303    2.57291983235968
H          -0.28902268402036    2.40453509978980    1.81531069384364
H          -1.25417405429818    1.61551286281905    2.72905988583755
O          -1.60678813916472   -1.93794458860937   -1.26363329842899
H          -1.62739657685242   -1.66237526016328   -2.18360920505723
H          -1.78739152900639   -1.10626166989012   -0.75900293965304
O           2.59755185229620    1.22507999460029   -0.42553241933084
H           2.25570461334787    2.05151543264839   -0.77528418709112
H           1.88208640446888    0.87715295431059    0.12236789287119
O          -2.87589534943157    1.10767623123925    2.30022004066703
H          -2.60900525576902    0.88185068354632    1.38292300893405
H          -3.41767899473146    0.37989046708049    2.60869317641055
N           0.90746079191771   -2.18882816512843   -0.49170616998262
H           0.85253571980903   -1.47926601192866    0.25835644212711
H           1.21939415464151   -3.09019661388315   -0.14586119638648
H          -0.08418021048494   -2.22331063685662   -0.88533676811661
