    26
        -50.47320872  Gyration_radius:  2.38698792834 Dipole_moment: 6.353
 S          -0.77758684005234    0.44951152778747   -0.91161992655193
O          -0.58060637593566    1.31528258546885    0.26060188787989
O           0.22864365805992    0.71257194072189   -1.91997467012500
O          -0.76451913801378   -0.95603357891538   -0.48354306985299
O          -2.15732153607344    0.75791192378366   -1.52483747577486
H          -2.81550722687358    0.16822360439696   -1.05338703367222
H           0.92581466055819   -2.04059585757358   -1.49157911953468
O          -3.43692160994629   -0.94520235541316   -0.08751035110691
H          -3.37536697198090   -0.46320111338603    0.76248467740303
H          -2.60937575477552   -1.44347278900557   -0.15752982249157
O           1.88288387794183    2.11067500656217   -0.26910111617191
H           1.79770911308698    2.13452834441679   -1.22889904171611
H           0.95474598439244    1.97660399012085    0.02733780884853
O           1.63063574161455   -1.47445353709162   -1.82433692265109
H           2.42421643050080   -0.88022943595411   -0.58575248675830
H           1.15301294967789   -0.64461340760664   -2.06696323315298
O           0.53355998277807   -0.68694674249728    1.77294320925812
H           0.30903892713375    0.24423193083328    1.89004508182742
H           0.00306521645792   -0.94896772528887    0.98195570121799
O          -2.45567974462953    0.48204517613244    1.96826480684421
H          -1.82004789775024    0.92766189052365    1.37182406822338
H          -1.93794591402815   -0.03617671654314    2.58911644701191
N           2.70081397167346   -0.33729206821559    0.29093459304157
H           3.65466592328420   -0.52502059753143    0.57838182544959
H           1.99443523235882   -0.59097236992348    1.03441391150972
H           2.53763734029038    0.69393037420801    0.07673025115016
