    26
        -50.45935136  Gyration_radius:  2.45145225726 Dipole_moment: 8.698
 S          -1.27903946932738   -1.52350560198427   -0.21784496791441
O          -0.71633459480593   -0.33854751743721   -0.83949394809034
O          -0.79057751102773   -2.74965721782419   -0.78957506899341
O          -1.03412608144554   -1.44076966094014    1.24520439998309
O          -2.83138703591480   -1.48579385017049   -0.41744002392581
H          -3.09396728855221   -0.64434778194228   -0.00161370097367
H           0.06073410065956   -0.47554129227258    1.43063795794725
O           2.51179995201376    0.06037995136646   -0.57285229087527
H           2.09344369505101   -0.69790776241858   -1.05493142948144
H           3.45580703795549   -0.10523047443909   -0.59338395526431
O          -2.70554748874893    0.67385718365414    1.17592738932768
H          -2.15386386915242   -0.04697565397805    1.51830276623094
H          -2.09072975149152    1.36853024755467    0.89844723095775
O           0.48936976686502    1.87085473338131   -1.55026418920303
H           1.38071669932176    1.52974246962228   -1.40715880600597
H          -0.06170180612694    1.06395263630198   -1.54646181204213
O          -0.53066086055963    2.52601867305425    0.76020782236839
H          -0.62892096813286    3.47268844480829    0.86606490887098
H          -0.19785713567034    2.36978906370666   -0.17052028278617
O           1.58372616145011   -2.12734380110400   -1.71146434025895
H           0.64734973453852   -2.29025450058009   -1.45070483172291
H           1.99792475766728   -2.99244939221742   -1.71451698662147
N           0.81230225350570    0.30895244069463    1.53611368721983
H           0.32129660498495    1.21645929037487    1.40073443110484
H           1.50210152370743    0.19705566362868    0.76057901230257
H           1.25814157319486    0.26004370919197    2.44600702789525
