    26
        -50.45196659  Gyration_radius:  2.49348913223 Dipole_moment: 4.659
 S           0.94412063452693    0.66919474172612    1.28887159918951
O           1.52372307397762   -0.53256230157249    0.73038540354988
O           1.55798978076560    1.89340639063281    0.89388088090699
O          -0.55751110734998    0.69361461598862    0.89592194937598
O           0.87743520400217    0.54826869163064    2.80734607004835
H           0.70587065506411   -0.44817479696530    2.97850611072106
H          -0.65221945893844    0.75921739156742   -0.14997411348360
O          -1.81381131363414   -1.70611497197686    1.50159728128947
H          -1.77795279767753   -1.98533456125650    0.57176728213771
H          -1.69632674113582   -0.74719691222594    1.47621899617342
O          -0.67820209509342    0.80087869846476   -1.59817397461547
H           0.03924390483822    0.16087846538898   -1.85117867621408
H          -0.27248529472442    1.70852798199288   -1.73452067712553
O          -1.72813472965828   -1.84612134451743   -1.27891951026360
H          -2.51343943925838   -2.15190820316946   -1.73590171727580
H          -1.64512331840229   -0.89946899693278   -1.46259096298238
O           1.10668730050593   -1.10750857510495   -1.84190392470414
H           0.53376218054312   -1.87867826038478   -1.77648934183453
H           1.44884130578132   -0.95286351539331   -0.93974185319838
O           0.50173584847467   -1.94618235163712    2.79504013493921
H           1.07927718628325   -1.98374483418792    2.02005044543975
H          -0.41800135179926   -2.03235502558318    2.44655902678118
N           0.67748421676639    3.05494106651883   -1.59039785378613
H           1.10620833908770    2.81410361300101   -0.69571545785119
H           0.22800954380791    3.95546358132025   -1.48307844999545
H           1.42281849321941    3.15971942272891   -2.26755868720994
