    26
        -50.45713025  Gyration_radius:  2.43303863932 Dipole_moment: 7.222
 S          -0.88038826451600    0.46848674551958   -1.44865834146136
O          -1.37282363420919   -0.60568257942230   -0.58851814567163
O          -1.57353076050901    1.71167058754601   -1.25992970084285
O           0.64534101434136    0.67641027305554   -1.06334683120052
O          -0.77307680717681    0.01554919539638   -2.83691539308287
H           0.32845639835948   -0.87283075623159   -2.74498751174176
H           0.75867704293453    1.18403431295818   -0.22046704491537
O           0.61683642986900   -2.20589968921192   -0.10650137195264
H           0.99094882870241   -1.77158790458571    0.67980753019106
H          -0.24872081200986   -1.74707407551293   -0.23443207605696
O          -1.95988488411774    2.37523106776913    1.29459304496837
H          -1.78221491069011    2.20201047614100    0.34575849933826
H          -2.85625769638167    2.71267939044515    1.33193604995164
O          -1.48077599016220   -0.17309765705149    2.03680120299575
H          -1.61577048838828   -0.43969599282590    1.10623733409114
H          -1.61121898978107    0.79675927944934    2.01149127929183
O           1.34939475379808    1.74170429342590    1.20863540246040
H           1.31226686387930    0.89168010449599    1.69413618450339
H           2.27109247533190    1.99809102866725    1.15413169412658
O           1.02977056449614   -0.73326496924733    2.22096100125870
H           0.03520957922380   -0.54811367873376    2.20061153747052
H           1.20806643390164   -1.07917844039579    3.09630893263246
N           1.21586429064864   -1.51653865646426   -2.54412095107436
H           2.04305655528081   -0.93358649297150   -2.62430138570394
H           1.25424305317447   -2.30199400360889   -3.18590955823735
H           1.09543894404443   -1.84576184859961   -1.52332137128779
