    26
        -50.45754979  Gyration_radius:  2.46066657334 Dipole_moment: 7.149
 S           2.19097505682598   -0.27674839260473    0.58012253504585
O           2.04787932771859    0.05129889333270   -0.85729532928304
O           3.47894577480454    0.02381045430682    1.10107153632272
O           1.09412300646206    0.41919409290966    1.31426545210601
O           1.91131746221300   -1.79329526653558    0.73926566675374
H           0.98446382214258   -1.97402874933357    0.42600766502102
H           0.66354499260661    1.57121255237295    0.45449020530496
O          -2.40597902524093   -0.36283928224063    0.69656245054000
H          -1.92159599482726   -0.21867318528696    1.54522884710683
H          -3.23454896899077   -0.78586127673056    0.92607193024638
O          -0.92795407870820   -0.14255414851274    2.86889889484706
H          -0.89459111982173    0.51259766481269    3.56714966422452
H          -0.08949595050602   -0.04080760944369    2.36211829529386
O           0.17710042741471   -0.74873374186612   -2.43687359873782
H           0.57119553382692   -1.07795192200806   -3.24518095914627
H           0.93743227233266   -0.47013561498320   -1.85202935330647
O          -0.49220721829565   -2.16181244883585   -0.21204212041253
H          -1.16483454527729   -1.57828604590310    0.18035010735375
H          -0.36265774247179   -1.83934865802084   -1.12029415172564
O          -1.62305437937834    1.10679180738129   -1.50621374583148
H          -2.02708087757832    0.63805673952591   -0.75530302002502
H          -1.15109336740940    0.42458343140983   -2.01588959460701
N           0.56746113575921    2.11917816324365   -0.47171983743876
H          -0.37601273817033    1.87702666042458   -0.90585366734357
H           1.31173885650122    1.61277651120171   -0.99619888666578
H           0.73492832837511    3.11454936198795   -0.38670898567795
