    26
        -50.44763134  Gyration_radius:  2.60870929947 Dipole_moment: 4.343
 S          -0.95939891347741   -1.06343758998507    0.21276588523255
O          -0.27675490135677   -1.72832089360399   -0.86528895658134
O          -0.65941238065690   -1.54597438618310    1.52161397198197
O          -0.60665742306863    0.45752715832076    0.12081037412706
O          -2.47055036815578   -1.06565193096702    0.01087546983414
H          -2.69247373728906   -0.40928957864798   -0.74514022717502
H           0.26790235692740    0.50108829196699   -0.42864846725531
O           0.94382913200110    1.49876898663173    2.33558571214098
H           0.71705032083130    0.86548247963275    3.04909479455633
H           0.23572959183009    1.40782268094486    1.68823523722123
O           1.55319897971504    0.25497110456716   -1.13876399815635
H           1.40112631798511   -0.69596383532149   -1.22839784378046
H           2.21617339244529    0.36716851206088   -0.40356083090928
O          -2.78562848177065    0.66396017542219   -1.80632028148186
H          -2.45769977511343    1.45792829256896   -1.37641010502144
H          -2.07703168923385    0.38207761399436   -2.46360866964596
O           3.02926308854543    0.59883686271147    0.99394170827616
H           2.29715649709530    0.93366633026458    1.57550948504052
H           3.69882790384418    1.28464453247172    0.99195433555961
O           0.18010163378090   -0.56166381251332    3.88759130930771
H           0.83907273220367   -1.18652050838921    4.19555923511243
H          -0.23561330983150   -0.97465707314119    3.10882699427193
N          -0.76357299317354   -0.22187266653881   -3.23713160535070
H           0.04895036407013    0.38235146784858   -3.26773348590961
H          -0.88651041120520   -0.63154145122004   -4.15397456979803
H          -0.55707791692643   -0.97140077289025   -2.57738548158341
