    26
        -50.44750108  Gyration_radius:  2.54653778016 Dipole_moment: 5.568
 S          -0.45352994822778    2.14319713622855   -1.80834871538551
O          -1.18971582022474    2.12127072752617   -0.56331109082024
O          -0.44874822065521    3.35837677326112   -2.53107488183772
O           1.00487403898945    1.69709512141208   -1.46253997055122
O          -0.94046844475179    1.00039316849392   -2.71563422666077
H          -0.82744906570788    0.12512834778650   -2.21256591289612
H           1.08160665000124    1.62320352852375   -0.46627661337094
O          -0.25590850258752   -0.26157566558071    2.28077354703491
H           0.04512115684611   -1.16605145941036    2.02407095062393
H          -1.12021279658234   -0.14765848322735    1.85612469197181
O          -2.32013801251653    0.04586799562408    0.51420835815351
H          -3.27251452042119    0.11126908818240    0.43512779320248
H          -1.95273283037308    0.89013531080858    0.15223676790670
O          -0.60310678695968   -1.07748318727150   -1.27705848822539
H           0.31391079279976   -1.05572504205173   -0.93760496309832
H          -1.20048553381061   -0.87734038074447   -0.53318221026667
O           1.31636308621307    1.39282178770669    1.08263275636967
H           1.22339372424970    2.24712167096739    1.50641977206780
H           0.68230217373065    0.77528445635830    1.57386891581681
O           2.03228270417492   -0.81660037240637   -0.52008613464073
H           2.31735641212734   -0.34897433221245   -1.30988710231039
H           2.05387291249152   -0.16274058511316    0.19185911587439
N           0.53032997794523   -2.68259916146350    1.30613438100932
H           1.30600674341034   -2.44655526365580    0.69670337192995
H          -0.18080321285539   -3.12567099243000    0.73713584363436
H           0.85839331269069   -3.36219017730804    1.98027406446909
