    26
        -50.44687995  Gyration_radius:  2.50297933633 Dipole_moment: 6.583
 S          -1.35033114378306    0.10340287586279   -1.57781765702830
O          -0.94532759428365   -0.80627391543360   -0.52928035642290
O          -2.73444179068963    0.06281871511139   -1.90105174313146
O          -0.93686430872092    1.54559781911024   -1.17120291404357
O          -0.46602568314809   -0.14861416715586   -2.80667047604308
H           0.45891648548144    0.10368198514032   -2.48767655728016
H          -1.69152154489475    1.89054879470075   -0.57266217804648
O           1.12767261876905    1.40556885506057    1.57360286309988
H           1.66409716844187    0.66330186076862    1.25104031520099
H           1.62780866461957    1.82609497217497    2.27443458904351
O          -1.42792624988412    0.36771360058200    1.84619571423288
H          -0.58455128753324    0.84984294010977    1.90013894591689
H          -1.30141433220497   -0.23440171722847    1.09291237058881
O          -2.91141821713157    1.93024220706501    0.34299750104453
H          -2.50931844135915    1.40289529947740    1.08388372268579
H          -3.49522328192964    1.33884995373396   -0.14400848551627
O           1.65627680898047    0.69166563563955   -1.65705052575708
H           2.01091810073864    0.13689984709072   -0.93015245932062
H           1.17066017996468    1.40509074753964   -1.22629955573919
O           2.59846675939523   -0.69142251085102    0.48782913257639
H           3.49038380173564   -1.03532464854967    0.42329283168342
H           1.98111420867858   -1.48230898326691    0.55036690392082
N           0.87881149870804   -2.68874160137636    0.56629553837014
H           0.54302627197488   -2.98223676112584    1.47535900308918
H           1.00903459276314   -3.51826953472432    0.00074486806402
H           0.13717672529791   -2.13662226944822    0.13477857881901
