    26
        -50.45122984  Gyration_radius:  2.47829261508 Dipole_moment: 5.264
 S           0.19632386689243   -1.72818365510739   -1.70928860564722
O          -0.14715642240911   -2.20099828988784   -0.38730059176842
O          -0.12995024326219   -2.56913821675556   -2.79991585251318
O          -0.41674613471138   -0.31311868798313   -1.89520158095600
O           1.70812130726934   -1.40602881856053   -1.72756301473911
H           1.90921285820417   -1.01310232673863   -0.83027036041424
H          -1.22486577917983   -0.11235963007934   -1.28948195383214
O           2.22838890225456   -0.41776903110418    0.60396629546857
H           1.45214196975225   -0.21555000613875    1.20082651887636
H           2.74129032049691   -1.08313158497163    1.06626952177814
O          -2.28442140218151    0.32597735128245   -0.31870978439898
H          -1.87078137991421    1.11645124221305    0.08455822005429
H          -2.30592295631213   -0.34883514690459    0.38478682081535
O           0.23165079321888    0.16263488542943    2.20046994985056
H          -0.47936053507605   -0.49412547874580    2.13869794500895
H          -0.14110244334845    0.99044273031985    1.85545050153601
O          -0.77347129110801    2.29783698897923    0.76639005667731
H          -0.98447085784115    3.22412438684758    0.88551162000418
H          -0.01551215299852    2.24869077673710    0.10712583962266
O          -1.79463486054852   -1.61100607470715    1.52806441570936
H          -2.26490108515448   -2.38195300809115    1.84780479219921
H          -1.17204109891760   -1.93152086107476    0.83274563609404
N           1.20171393338891    1.97394432808612   -0.96112767738471
H           0.76477836806786    1.31902340949012   -1.60393156116806
H           1.93002153002495    1.46401422803482   -0.47285713766913
H           1.64169479339342    2.70368049943141   -1.50702003320672
