    26
        -50.45147864  Gyration_radius:  2.46508544982 Dipole_moment: 6.105
 S           0.32893598590956    1.71899161241662    1.64087571714497
O          -0.85758679476743    0.99641789264912    1.23236926804771
O           0.34088336071988    2.19112363814305    2.97532870726469
O           1.55976860924269    0.81160565516410    1.35062693208799
O           0.58217549529438    2.86716588247912    0.65163264200013
H           0.70786588198533    2.41061862575755   -0.23400348644972
H           1.37609409743541   -0.16026852221262    1.54202513812672
O           0.96061659594920    1.59321817445586   -1.55173263798513
H           1.79560556456473    1.90566402629615   -1.90441950007105
H           1.06890595812976    0.58737933932732   -1.40392976616945
O          -1.72547954436273   -1.55676704240327   -1.47473698720364
H          -2.53456373213652   -1.90187562830210   -1.85416691169393
H          -1.81935042749042   -0.56827145227792   -1.47121953559180
O          -1.43966267456734   -1.63985024112612    1.24558699737919
H          -1.47418408873630   -0.67653511419877    1.37369969726306
H          -1.57462432516207   -1.76700725229476    0.28593571553439
O           1.08879019430228   -1.67802569919081    1.75162785929191
H           0.10200523476419   -1.76952517240633    1.56263816052190
H           1.20664524570323   -1.90533278713658    2.67562945618937
O          -1.80108500293304    1.07895599783872   -1.28799641376378
H          -1.60759494905707    1.13362764104283   -0.33337929508550
H          -1.01631729839569    1.43564015401719   -1.71989599101664
N           1.18905548060744   -1.00287009658448   -1.29085359261060
H           1.80777132988433   -1.44613537603381   -1.95830154537415
H           0.25494664059687   -1.37474622789811   -1.44185353293721
H           1.48038315233995   -1.28319800762923   -0.36148710519351
