    26
        -50.45147868  Gyration_radius:  2.46533904042 Dipole_moment: 6.107
 S           0.24747444243059    2.31013597318716   -0.59750767968574
O          -0.56797147395222    1.65771114159678    0.40566739012017
O           0.63549774362284    3.64153956247976   -0.31349960976790
O           1.48471062702076    1.40463461889248   -0.86469233352359
O          -0.46582231044185    2.22561217974647   -1.95587497398649
H          -0.56106113695089    1.24053573300373   -2.12627913457472
H           1.83395045102890    0.97152638670190   -0.02484662224626
O           0.09308505772169    0.09864723922086    2.50794616836019
H          -0.37667966246321   -0.71619556719979    2.24213364377979
H          -0.28700694588679    0.79619304173466    1.94708952237491
O          -2.45020121243003   -0.16584336896228   -0.21225343453061
H          -1.90427137438128    0.59388032694132    0.06414810849915
H          -2.16612029388955   -0.35884197873250   -1.11318552126919
O          -0.58997517159056   -0.31770720349114   -2.32784900593740
H          -0.01230390028227   -0.83453966490508   -1.66126481068615
H          -0.21497975552251   -0.48251677018422   -3.19468246525467
O           2.33915596889512    0.22493290882098    1.24680126992334
H           1.51138894605509    0.11651839865074    1.81326037406420
H           2.93042917410466    0.79397687176946    1.74281820807306
O          -1.35074728127734   -1.94655392404455    1.40284242837717
H          -2.01125690557463   -2.37758826050985    1.94649287944324
H          -1.84409624492175   -1.32469517166501    0.80636842176349
N           0.80802804510432   -1.74080207810586   -0.63057177552421
H           0.15874584242230   -1.99860822006067    0.10806363396458
H           1.56237377345036   -1.21696261552775   -0.20197615704705
H           1.19765361769248   -2.59498957938531   -1.00914853470836
