    26
        -50.47562120  Gyration_radius:  2.39552132668 Dipole_moment: 6.098
 S           0.30280871038160    1.06436423805240   -1.40326699084809
O          -0.82732522553003    0.14467164741457   -1.19067766208337
O          -0.01248221001317    2.39160042186610   -0.93613758641015
O           1.50618434170837    0.51604064203454   -0.78072252167004
O           0.54274449495400    1.12905465896427   -2.93894910440956
H           0.88977593166619    0.23556644110044   -3.13205201031196
H           1.64172897982363    0.43684899025006    0.87039068429453
O          -2.14127650705901    0.38936021704778    1.09927384909646
H          -1.74212270894976    1.20095226682583    1.45637166462334
H          -1.84182173865311    0.36862619274434    0.16406095657702
O          -0.38267451376485    2.42950983127537    1.62887826282465
H          -0.23181161512478    2.46605768099140    0.64701409640833
H          -0.40599828249537    3.34226898774438    1.92114093916608
O          -0.39979716033676   -2.35304058864756   -0.82300202419891
H          -1.18710793026972   -2.79936827579959   -1.14013815519516
H          -0.54450692139181   -1.38285872276108   -1.02090424632073
O           1.44538742733436    0.39006382585879    1.83489135862388
H           0.45241983673406   -0.78791665679990    1.85762576804350
H           0.90867399607037    1.18483775404526    2.00137461001701
O           1.56710879824143   -1.30893048546924   -2.66850211600493
H           1.00774554490344   -1.99743680943741   -2.28802963679088
H           1.86901853342225   -0.78476140583512   -1.90448811446363
N          -0.39408360085088   -1.44764209371754    1.74325790618413
H          -0.28764880981033   -1.98240353999786    0.85557564762190
H          -1.22496037303427   -0.78499559279164    1.60512793996917
H          -0.50997899795138   -2.06046964492841    2.54188649522888
