    26
        -50.45007688  Gyration_radius:  2.50589087098 Dipole_moment: 4.972
 S          -1.37914599223948    0.97934381715802   -1.77431520522759
O          -1.88315706041293    1.45949954390482   -0.50619849235558
O          -2.25334607533484    1.04392107623636   -2.88340442816840
O          -0.06702897469241    1.71427651469826   -2.12016010999862
O          -0.87468500377107   -0.47841507742568   -1.53663751370386
H          -1.38895474950687   -0.82312629201326   -0.72502505398471
H           0.56475334735856    1.68049184060955   -1.34384233466711
O          -0.24398759509360   -0.61539889496723    2.36719545202674
H           0.60911421705099   -0.75368220832233    1.85390638913754
H          -0.13970482668242   -1.08669406096150    3.19428151688196
O          -0.36811274967267    2.03328230702811    1.62503102828505
H          -0.39182460941706    1.17689432634739    2.08711736679965
H          -1.06099573020447    1.98177802831502    0.93921207205072
O          -2.18326679563315   -1.00528077314239    0.55912172149941
H          -1.51726406399293   -0.96142305333631    1.28219303522140
H          -2.57118357506444   -0.12089011336311    0.50570470272463
O           1.52944543159202    1.72234146739167   -0.07832074817699
H           2.09003511936063    2.49865363210538   -0.12992646971539
H           0.85408461783309    1.90292781755825    0.65343810688216
O           1.92281095128711   -0.86419390125793    0.96585738682864
H           1.99484848718367    0.00680525263253    0.55008458834307
H           1.77177699469391   -1.49703243246224    0.22267471864885
N           1.35160728157775   -2.39393182273976   -1.19666517693360
H           0.96187956777954   -3.31410199466968   -1.03559411816214
H           2.06316156966605   -2.48021696855284   -1.91142913857228
H           0.60914021636132   -1.80582802077822   -1.56429930566161
