    26
        -50.47304502  Gyration_radius:  2.41215511719 Dipole_moment: 4.424
 S          -1.02126141722731    0.97543231271059    0.03295056858226
O          -1.53125910506722    1.28611535253141   -1.29378576585702
O          -1.60801477446828   -0.24816499331146    0.56923604553483
O           0.44570860422744    0.86553606970425    0.00779378944570
O          -1.38541772676639    2.15580449280950    0.95419516067416
O           1.84835069787257    0.87104273624649   -2.20887184320733
H           1.40643440523635    0.93236861379682   -1.32746254263531
H           1.95855744480893    1.77528306202182   -2.50661302991094
O          -0.49738185726695   -2.22416367318540   -0.79830627220451
H          -1.07512994808122   -1.63613481769995   -0.26405170093317
H           0.34702614854515   -2.22077291299192   -0.31365664081808
O          -0.26252435258265   -0.95572579193657    2.74542287745645
H          -0.89422882009799   -0.80584200990584    2.01165349536515
H           0.52818062353604   -1.31215123113767    2.31796216091508
O           1.62838752690570   -1.36628563234331    0.69971949515078
H           2.56495392893660   -1.26931271263852    0.52231637297331
H           1.21887487114872   -0.49179168056958    0.49219898120206
O          -0.13163408707282    1.62636601063694    3.14471733968051
H          -0.70194164291120    1.82498741193054    3.89040668010039
H          -0.08530372446140    0.63241016190523    3.09031267851507
H          -0.86569812502328    2.01020978312127    1.79851220683750
N          -0.37743568135511   -0.50048622753752   -2.75412842624281
H           0.58560742765649   -0.09849521023624   -2.79940751711446
H          -0.96769752261638    0.25169325984126   -2.27119362797261
H          -0.74173144602003   -0.74875438808260   -3.66707245449848
H          -0.38542144785721   -1.32916799567870   -2.07284805103545
