    26
        -50.44731992  Gyration_radius:  2.52086184528 Dipole_moment: 6.569
 S           2.29645620790605    0.14152562289430    0.87422646574871
O           1.58021781815750    1.08216858769158    0.04726813172595
O           3.53306315767108    0.56677532792922    1.41213546968186
O           1.30623193947212   -0.30317964321069    2.00706488057482
O           2.49521450527027   -1.18090537714046    0.10722343757274
H           1.63147928848771   -1.49048449634250   -0.29433972160744
H           0.83274671371421    0.56075725553219    2.25934026024601
O          -2.07094545980128    1.01631319831668    0.89611024148498
H          -1.62243025490608    1.26863126714827    0.02619337090039
H          -2.94763163914315    1.40070045089119    0.87323975974505
O          -1.12742907981543   -1.50263771544852    1.30170866971830
H          -0.36877439169601   -1.28476612320746    1.86007175994728
H          -1.60224598315115   -0.66003473798014    1.16763539147833
O           0.26515894700071   -2.15685156679385   -0.78740434954742
H          -0.35760814504463   -1.92354707846620   -0.03684274437076
H           0.39767098389350   -3.10596444228223   -0.73604552271432
O          -0.76074031881401    1.66040633461064   -1.21912329178637
H           0.14494181683380    1.56674055797045   -0.88054604985482
H          -0.83474222684019    0.97674054446672   -1.92624802471826
O           0.09733811641045    1.90913922398490    2.22473596101212
H           0.58292789715707    2.27086187048039    1.47259091954021
H          -0.78786774306571    1.66510289450098    1.87419146187224
N          -0.72821610152693   -0.39065826698406   -2.99727407015989
H          -0.34990061304099   -1.09477157779214   -2.37043071330192
H          -0.04438629350418   -0.22373652152562   -3.72414572314834
H          -1.56052917161780   -0.76832558929719   -3.43133598004855
