    26
        -50.47304502  Gyration_radius:  2.41216386272 Dipole_moment: 4.424
 S          -0.93986670706685   -0.35799519145880    0.99197772056144
O          -0.43853975799244   -0.12441998695619    2.33770147694982
O          -2.47702473010102   -0.42340385561768    1.07824995424087
O          -0.59022118569395    0.76654548388657    0.11001194959571
O          -0.43876842702026   -1.60950801059552    0.43369059026199
O           1.02421269698123    2.70573644135309    0.82714273589548
H           0.35350150057774    2.05727648089246    0.50221487658211
H           0.53747544268768    3.33670862065745    1.35950661696806
O           2.11124818490546   -1.16587345454294   -0.12208723837403
H           1.95101189392185   -0.67126701275416   -0.94525963790186
H           1.23103524670358   -1.54180605861271    0.09904580465453
O           0.88602931388118    0.38325900507347   -2.01890640747268
H           0.27720821908518    0.55282191886777   -1.25990009786607
H           1.08204472351779    1.24093705308556   -2.39837785814654
O          -1.02296362715975   -1.68228593297789   -2.15478716245464
H          -0.34990378622282   -1.06532438648664   -2.47310998688600
H          -0.78855198886726   -1.84195025936240   -1.21697719564899
O          -3.22197238176127   -0.48937216459835   -1.38983861299067
H          -2.42080551224811   -0.90831478289749   -1.80896066726802
H          -3.93490063168468   -1.12419033997302   -1.48721702302611
H          -2.80260673996702   -0.39179216046044    0.13105493385027
N           2.03189137678829    0.47860404399980    1.90277132205987
H           2.72757470219047    0.40739427028658    2.63677947379072
H           2.23969181895661   -0.17665402057127    1.07913243589563
H           1.05606890442036    0.19031050532669    2.23753771158658
H           1.91713147116897    1.45456378443626    1.54860427514102
