    26
        -50.45476372  Gyration_radius:  2.47349520556 Dipole_moment: 6.118
 S           0.82568411459848   -1.33504399788729   -1.73518735540909
O          -0.38401078974580   -1.93970108447912   -1.13559192556289
O           1.15087270880675   -1.83803323967631   -3.02301827771219
O           0.66383257094494    0.14413404707800   -1.70404232570406
O           2.01322136296409   -1.64218315806898   -0.76689943187455
H           1.81153348525457   -1.25020351175082    0.11136166875311
H          -0.82166260424257    0.44792638269325   -1.57579656031061
O          -2.04098963982097    0.60666149684222    1.30013571154781
H          -1.61997348616295   -0.30056645550356    1.43103696587223
H          -2.75522641133446    0.66431801982798    1.93540204687710
O          -0.88998794187278   -1.70722383969416    1.45369566502345
H          -0.00502807399681   -1.52519383173715    1.80263652538530
H          -0.73331129760163   -1.95278239436792    0.51492576430696
O           0.51786441126483    1.73602285816706    1.65501347790809
H          -0.42598684728136    1.53806868843215    1.55860052651566
H           0.79339521313131    2.15868727122260    0.81527043234898
O           1.29295934795358    2.54548438836177   -0.79224371674470
H           2.19890049510696    2.77058750885692   -1.00775471206607
H           1.12527202457586    1.67159600383781   -1.20125750955714
O           1.61202495831182   -0.61856585593225    1.65356390011834
H           2.45236556780155   -0.58082438692110    2.11198018566748
H           1.23339139982570    0.31133275327479    1.67223668631511
N          -1.82633633809869    0.13795635242158   -1.34058301112055
H          -2.50657790890385    0.37659981818930   -2.05217635212316
H          -2.08762595593671    0.47683104384110   -0.39135291431167
H          -1.59460039557785   -0.89588485697718   -1.28995547415485
