    26
        -50.44193246  Gyration_radius:  2.56853113076 Dipole_moment: 7.059
 S           0.56361893889151   -1.91762074643694   -1.49144368002842
O           0.39407655350659   -2.51928533557458   -0.18950533898773
O           0.06002655075398   -2.63945815603008   -2.60290628954527
O          -0.11883252274422   -0.50055017921007   -1.42526675276661
O           2.02502655935129   -1.53667756667904   -1.70720948988184
H           2.37941212165943   -1.04635393592888   -0.86504355715898
H          -1.05731397638329   -0.67924953711913   -1.11745245453931
O          -0.63712509311486    1.45250265988704    1.80540573199335
H          -0.82232152252448    1.62539692478624    2.72996010496331
H          -0.24950370848275    0.55188615536630    1.76682475818997
O          -2.52508978515656   -0.91385056158598   -0.63847073912472
H          -2.77217343628687   -0.01363422804741   -0.31503605153215
H          -3.11214514921022   -1.13584875366897   -1.36340490495007
O           2.72125876887001   -0.25093268771640    0.34930157559781
H           2.11550418174693   -0.54881376457669    1.04717331807250
H           2.38057535478485    0.64471870840735    0.08267304025190
O           0.51387460987628   -0.99849946339755    1.87878737089943
H           0.41577581548961   -1.57586069717111    2.63787562678937
H           0.38625422070426   -1.58511394807305    1.08535121802034
O          -2.76032262474450    1.61109566278779    0.14167587514507
H          -2.48378778762374    2.20508202174057   -0.55818556760033
H          -2.02059383465959    1.58443058480442    0.78581155149469
N           1.36430617075466    1.91111272647841   -0.42321989779859
H           0.75681642535917    2.16207973942857    0.34877277047023
H           0.81709030981116    1.35703088157419   -1.07378431670913
H           1.66559287937108    2.75641351594311   -0.88868392126086
