    26
        -50.45652502  Gyration_radius:  2.43797418609 Dipole_moment: 6.660
 S           1.01097859270953    1.09528613424074    1.10269993347287
O           0.13833744232368    1.31865871350590   -0.03376798694227
O           0.86002524216103    2.02391476853899    2.17413178734009
O           0.77786913738092   -0.33925988119363    1.61639366906382
O           2.45738374425483    1.07193924871603    0.61727692579609
H           2.51998312566172    0.23616075416545   -0.02162567496248
H           0.05185546776422   -0.87894995855832    1.08270917770524
O          -1.53942396315560    0.99325519840908    2.92695659827538
H          -1.24131243616959    0.21291583040763    3.39856042450866
H          -0.74401261505501    1.53107035366419    2.77788989691707
O          -1.05937239703087    0.99000760727069   -2.41708071236710
H          -1.95573360767374    1.00003936811206   -2.06662711046204
H          -0.50270056149574    1.32847485433702   -1.69508300167281
O          -0.04400230700309   -1.43193825067465   -2.24380332836263
H          -0.37011539196249   -1.98695563357451   -2.95381107472853
H          -0.41122202999787   -0.52302153200084   -2.40496865286670
O          -2.42122460584318    0.63449895648965    0.36755749637317
H          -1.57070772438573    1.07392351076301    0.18064287803447
H          -2.53087303084523    0.77298287390435    1.32248626284946
O          -0.97233541217369   -1.56791795778089    0.31843356587715
H          -0.64414662911877   -1.62070860697871   -0.60052665577263
H          -1.67966432014914   -0.87166350296360    0.31576097834945
N           2.47731823077687   -1.03288469589391   -0.81679147645270
H           1.64166151787096   -1.10199426134830   -1.39566154980615
H           2.45941191241004   -1.78945814145731   -0.14455746091220
H           3.29202261869705   -1.13837573008310   -1.40719490925066
