    26
        -50.45752794  Gyration_radius:  2.44718084163 Dipole_moment: 4.611
 S          -1.09369443068525    0.87934601716473    1.23198997921363
O          -1.33947627305284   -0.36015841161742    0.53518070452969
O          -0.56172506978559    0.69665455800331    2.54999661874038
O          -0.15252963784753    1.75973222356941    0.38975207109361
O          -2.35984685867510    1.72836735116727    1.27078232741817
H          -2.49200454598593    2.03519988201270    0.30673963019782
H           0.80378003784003    1.34498091234857    0.26582613537812
O          -2.36066343253627    2.44252217702378   -1.17264011868567
H          -2.05195025826622    1.63452513964057   -1.65266329189478
H          -1.60888435022569    3.04163036982056   -1.16781860656034
O           1.33681799861016   -0.90055378948501   -1.97496497570869
H           1.93076045763945   -1.34540425798770   -2.58072233959528
H           1.00990008204701   -1.59027558451424   -1.32114734629963
O           2.05588187667346    0.63998479636296    0.09403563145338
H           2.03592192839565    0.00797036680514    0.84416155177834
H           1.89453377804366    0.11888726306448   -0.72434803092693
O          -1.30199415239703    0.17988271284825   -2.07637809889549
H          -0.37700434926750   -0.00128174038111   -2.29341180737826
H          -1.41886998949977   -0.18234969665167   -1.17979494815013
O           1.59799981467942   -0.83972998811035    2.30086363286463
H           0.75546102849362   -0.36556592675772    2.46882560600812
H           2.15763822920751   -0.64770490636161    3.05653743777029
N           0.50875214595028   -2.48541522070918   -0.03160168786968
H          -0.29584168940909   -1.91151813879092    0.21780043380080
H           1.13864124880302   -2.43810292137114    0.76212564657246
H           0.18839641124708   -3.44162318709612   -0.11912618485387
