    26
        -50.45007664  Gyration_radius:  2.50576243157 Dipole_moment: 4.967
 S          -0.16488207869106    1.34724685537813   -2.03949398716873
O          -1.50742574495812    1.00320413726636   -1.62465416468757
O           0.01600299955303    1.73322803487036   -3.38737558970926
O           0.39341265851315    2.45135852754780   -1.11716461426945
O           0.74614154407917    0.13433462037456   -1.67207855406640
H           0.12881524960928   -0.67763007660501   -1.63527517287093
H           0.26539922058126    2.19961074235533   -0.15623014041310
O           0.91971338070989   -0.72123610112636    2.00178374837969
H           1.64802584784817   -0.91985976257261    1.36472446740137
H           0.75442869094959    0.22829864851381    1.91380733463469
O          -2.32975281881988    0.80751606127380    0.91562358379902
H          -2.17482199919552   -0.14061283362069    1.07227345350930
H          -2.25136188817823    0.93120105691620   -0.04954055563249
O          -1.03151296734505   -1.65428048809493   -1.51828978329878
H          -1.68751380809465   -0.98368620714784   -1.75364898902314
H          -1.14195308848003   -1.80833937999224   -0.55268702380338
O          -0.02847377489051    1.85479224584552    1.36932675714113
H          -0.96484868962342    1.47885393490194    1.29073636190124
H          -0.10204574266752    2.66850173008126    1.87134488158908
O          -1.30605168513629   -1.73810513879684    1.14623238775829
H          -0.43214524759283   -1.39036976622529    1.50105588694958
H          -1.51862313672279   -2.51292820736651    1.66732888825379
N           2.79822029662151   -1.07255806925551    0.08104332097863
H           2.30161257698184   -0.58800468392939   -0.66116860406382
H           2.97816757016411   -2.01659349843177   -0.23669068263714
H           3.69147262464596   -0.61394237290357    0.20901678839144
