    26
        -50.47070309  Gyration_radius:  2.47446960334 Dipole_moment: 5.450
 S          -0.09823729346678   -0.67556463602985   -0.95839460145943
O           1.31682905699901   -0.48744992509409   -0.57961676201097
O          -0.78405979765962   -1.44855535101525    0.06683184925267
O          -0.72669319108881    0.61301338905885   -1.19849516534128
O          -0.13589581015368   -1.50083289255126   -2.25784626763865
H           0.01587626077096   -0.83240808880333   -2.98900335674450
H          -0.95672724681318    1.44831395662708    0.24635488991378
O           0.17898289099946    0.46816241834333   -3.88377576412561
H           0.89539220276332    0.95082239019186   -3.40788147154611
H          -0.63461535735391    0.92434671460742   -3.64859594922224
O          -2.53173545217385   -0.38519966215432    1.83116444291528
H          -2.29055305727524   -0.91469843367869    2.59494742630155
H          -2.09443324731838   -0.81234422734128    1.07086215894601
O           0.09342973337665   -2.00649804624650    2.48507547979917
H           0.55507099276152   -2.84604143814847    2.49731970863600
H          -0.26711881188123   -1.90962625864945    1.57151682919049
O          -0.97978965532304    1.70247689228136    1.19618351341409
H           0.28987028864288    1.03031960514716    1.71203858161598
H          -1.70731449846939    1.15388594788147    1.55921022632921
O           1.74808724809609    1.66050044360328   -2.07976875700377
H           1.05468741586263    2.20914049131773   -1.70216241293697
H           1.75315088250024    0.84743109173076   -1.53588595434087
N           1.14753734173092    0.38153245846986    1.85653176194150
H           0.84720476384864   -0.46687244653988    2.38034484403210
H           1.92788951708487    0.85470640868141    2.29823925168372
H           1.38316482354147    0.04143917830539    0.87480547840250
