    26
        -50.44507260  Gyration_radius:  2.59548055931 Dipole_moment: 5.313
 S          -1.26276511691407    1.64836919976139   -0.76587240451032
O          -1.17120542199704    1.33038925055617    0.64800707926754
O          -1.75579043904347    2.93005454569069   -1.10421645242416
O           0.10498985882666    1.39263209206696   -1.40878525169926
O          -2.17343258427280    0.57144842343714   -1.42617527542980
H          -1.98699587322182   -0.30186869009011   -0.99994441248871
H           0.81646954662903    1.02809112648367   -0.72324001536983
O          -1.86532650879025   -1.71449752242266   -0.16799965444644
H          -2.19950060754073   -1.35446541752727    0.70374544093559
H          -2.53137876503335   -2.32752657141477   -0.48444293585594
O           0.76904485798324   -1.84630173014945    0.78139651472346
H          -0.06875032070924   -1.95080365301569    0.30921777681158
H           0.53830103851499   -1.40580143463468    1.62141559129984
O           0.15471368226361    0.04445203211286    2.63982224424231
H          -0.23527140037261    0.60199285537135    1.93988849986461
H           0.98841330442172    0.46137003914563    2.86386280253997
O           1.88148240207170    0.44298583938460    0.04784767120915
H           1.56526451336858   -0.46866934163562    0.27369438483103
H           2.53091097153550    0.33782484187538   -0.68493295148880
O          -2.61642663788531   -0.48440080644846    2.00574826212995
H          -1.98854491940147   -0.62802536440074    2.72227019785314
H          -2.33366077214458    0.35540930610365    1.59764226381700
N           3.16679601110882    0.30598968893265   -2.33181145804033
H           3.98936084097703    0.86950521569668   -2.50503092796005
H           2.37823611743740    0.75754875746725   -2.78155192261669
H           3.30506622218122   -0.59570268233996   -2.77055505721745
