    26
        -50.44651445  Gyration_radius:  2.47429220188 Dipole_moment: 5.782
 S           1.76179407635373   -1.74012954382581    0.20663267328898
O           2.26677468567327   -0.38867550209140    0.10721436522336
O           2.48325875622468   -2.63005147681443    1.03652935644481
O           0.26511156871423   -1.65729811685079    0.62526082922789
O           1.62849497348830   -2.31372424186697   -1.21842551324366
H           1.18385471800260   -1.58197166336235   -1.72646201146710
H           0.06674343024354   -0.92186441265629    1.32139233433660
O           1.65670567223189    1.85435666129598    1.25014529425128
H           2.41360242024166    2.30247954076723    1.62973373750369
H           1.99991602504733    1.02495432705658    0.83684167308155
O          -0.33462147019583    0.25137784796192    2.15851381021817
H           0.34457029812423    0.93497465746509    2.01024335582179
H          -1.15388994074463    0.55846667882721    1.70847141863582
O          -1.90020649841630   -1.28787911219436   -1.12848643405407
H          -1.28314673601766   -1.69321690911428   -0.50441733254084
H          -1.36594982719826   -1.04681982487479   -1.89277415774832
O          -0.13967794421170    1.70868639307889   -0.84354971341646
H          -0.92476194684750    1.44908442840605   -0.34498286283075
H           0.53858705910075    1.93506655957756   -0.18846606817181
O           0.48024803185540   -0.31603275219903   -2.41409286630541
H           1.07198927473992    0.01776733241112   -3.09091882056947
H           0.29735147943520    0.45207099687077   -1.80793359491442
N          -2.57923722957239    0.83995821605583    0.67240650242508
H          -2.53667675732115    0.08162189523253   -0.01659314928317
H          -3.01757837729632    1.63578353181962    0.22126524842880
H          -3.22325575162291    0.53101448905819    1.39245192566718
