    26
        -50.46846776  Gyration_radius:  2.39953195929 Dipole_moment: 5.639
 S          -1.34824966154821    0.31042391327052   -1.18240875956869
O          -0.85035801605191    1.04045991289195   -0.02207072670125
O          -1.67454272118298    1.18102124496459   -2.27922748403778
O          -0.35373904080660   -0.71925836263641   -1.57074874952429
O          -2.62829875521617   -0.46116817183414   -0.74064875273687
H          -2.38835273419236   -0.92882954597115    0.09521292899625
H           0.94476249700600    0.04270158336644   -1.43139590142787
O           0.27784138375675    2.87212858423033   -1.69124066422580
H          -0.46507205853884    2.35366362596203   -2.07928373363143
H          -0.07302569717208    3.17119696113632   -0.84695032762996
O          -0.25178051148804    0.30534920382822    2.40245202737516
H          -0.55380881697749    0.71451240391625    1.55960130754685
H          -0.82677834999979   -0.46235070426419    2.50243667440952
O          -1.84422364067151   -1.83412080453963    1.40226869660164
H          -2.39571379989956   -2.61657790074680    1.45585472137920
H          -0.95764888828003   -2.13597477621818    1.05625889701639
O           2.07343636359031   -0.22441163188969    1.36958737526968
H           2.75404706133956   -0.05183619690644    2.02122320838865
H           1.20149877674112   -0.01070539063844    1.81938176144610
O           0.47268580274041   -2.36512842483698    0.32198302374343
H           1.16382552622333   -1.81987392113866    0.72228393469715
H           0.19107262790095   -1.88032778897553   -0.48452692875562
N           1.73583832275407    0.72103637042662   -1.16689124410736
H           2.54997450989062    0.59692841916840   -1.75967816240050
H           1.95680825645745    0.52546822950730   -0.16723633402926
H           1.28980156365845    1.67567315796399   -1.30623679810740
