    26
        -50.44573485  Gyration_radius:  2.5634919052 Dipole_moment: 9.290
 S          -0.27904413740994    2.66435695510482   -0.41962987009331
O          -1.36561407179472    1.87355059893933    0.13867737401901
O          -0.65209393248718    3.84823826513281   -1.09640509197835
O           0.73084169778773    2.94673884612181    0.71855001299769
O           0.50472731109340    1.75649784083674   -1.39175474323510
H           1.07926957436631    1.06726596408498   -0.87434024550787
H           0.41836546971579    2.47176642705867    1.54786014466899
O          -0.39961359217199    1.57951942022141    2.57558290512827
H          -1.13828434786910    1.62143363767667    1.94589953729919
H          -0.07153162219795    0.66608660226451    2.52295463923709
O          -1.62713107639142   -0.15087937541156   -1.53173776666292
H          -0.92438225654853    0.10719979473725   -2.13433982749002
H          -1.70452405460183    0.60435956982586   -0.91132788868869
O           0.34971398285882   -0.99478375706000    1.92582872189906
H          -0.28357461249428   -1.43754040177206    1.30955986955505
H           0.73610824591455   -1.68133072595270    2.47109569705984
O           1.80742822801068   -0.01134133747243   -0.17216951321442
H           1.36551616996107   -0.23334033914450    0.66746789771801
H           1.69943802335427   -0.81844911267775   -0.74033659390610
O          -1.27271799066262   -2.13998290234569    0.15360319586941
H          -2.14996782205265   -2.37445665512845    0.46084636861362
H          -1.41018934570633   -1.41619489839404   -0.51316597483868
N           1.24432562737323   -2.26190268635686   -1.54788576893378
H           1.93518341347898   -3.00098103650381   -1.52942607044585
H           0.99178029666522   -2.09645584597385   -2.51374289880975
H           0.41597083186117   -2.58937485784067   -1.06166412040629
