    26
        -50.44437477  Gyration_radius:  2.55686133544 Dipole_moment: 6.200
 S           0.61289491694421    0.14170832041594    2.48830820436836
O           0.81412792755489   -0.88189914726000    1.47620057383160
O           1.72984111404098    0.42922164215681    3.30903031251247
O           0.08243096090449    1.40912428572726    1.77656172496588
O          -0.61343457701836   -0.24487749286056    3.33902081337907
H          -1.29579296656212   -0.52434867408355    2.66792908597335
H           0.80270737865617    1.86802559657173    1.22215467742264
O           1.75178078491589    2.53753676363434    0.23719714493085
H           1.58206300241925    3.48133952504285    0.21328615943870
H           1.37880918765753    2.15708014495402   -0.61191106867216
O          -1.90241812902666    0.45942028291569   -1.11951100927220
H          -1.60122222676607   -0.42621049475755   -1.47319813137112
H          -2.68500887698606    0.70785245539320   -1.61272767907945
O           0.62790502248248    1.35569211225693   -1.78321698862637
H           1.06144165372606    0.48878069480415   -1.67209841940158
H          -0.29553064347111    1.20995480303369   -1.51159415696096
O           1.76234197540132   -1.01051101004001   -0.99795566600472
H           2.71942786156879   -0.99458984624693   -0.94409374784315
H           1.44404833048647   -0.98019803262899   -0.07046165184973
O          -1.83618090181358   -1.02412321017827    1.20529921350222
H          -0.91277420791744   -1.27732239877637    1.04420358512794
H          -2.01424521662466   -0.32018862960825    0.55654291283462
N          -0.94172763148532   -1.90679241803033   -1.89962204280154
H           0.05150292096143   -1.78261910522945   -1.72214236554283
H          -1.04652567304678   -2.24623836587302   -2.84739795329629
H          -1.27646195699655   -2.62581782133636   -1.26980352755482
