    26
        -50.44396296  Gyration_radius:  2.50955045291 Dipole_moment: 4.381
 S          -1.18868313087332   -0.40550260838612   -2.02402845347040
O          -1.77572559193096   -0.37961075965496   -0.70601628598903
O          -2.01344551724085   -0.01809573276291   -3.10724363971140
O           0.11571936304649    0.45134128965893   -1.98045009201749
O          -0.60305798907626   -1.80919717234201   -2.27188577714778
H          -0.19163029480892   -2.11846599047710   -1.41508469579828
H          -0.11776301618213    1.38482091785572   -1.65302491779664
O           0.12495061646105   -1.37944515453497    2.23638350896327
H           0.90856085313677   -0.83341112250759    2.34050631704186
H          -0.62386933535274   -0.75807787038966    2.16718757052610
O           0.65930888818073    1.96647905296945    1.28881426504801
H           1.23401093096642    1.23604655377281    0.97095409038524
H          -0.15694219237064    1.54969061901876    1.61188401744549
O          -1.67171714026237    0.57353744903671    1.71725315358588
H          -2.55597510517652    0.83181775538451    1.98026491225659
H          -1.74399701506013    0.26358982763794    0.78442022297662
O          -0.31931908393863    2.74894827731682   -0.99522294782883
H           0.04779383829676    2.56772459529638   -0.07970536399424
H           0.23700762984071    3.42495879682926   -1.38688069806606
O           0.40426295772584   -2.69164835796657   -0.05221193018937
H          -0.00210327932605   -3.55164192972104    0.07087737601636
H           0.22931013348456   -2.18608715516685    0.78294614207527
N           2.13435030001943   -0.06804120475387    0.14372268752651
H           2.17854959620482   -1.06043262936277    0.34601871607875
H           3.08063930946363    0.24079512069769   -0.04583487657845
H           1.60976428642829    0.01990742156455   -0.72364330239513
