    26
        -50.44160143  Gyration_radius:  2.54222849389 Dipole_moment: 6.889
 S           0.70106814340261    2.00180453109040   -0.86669263727114
O           0.47428210419784    0.77851671008729   -1.60501396672426
O           0.37961141382650    3.21199568945177   -1.52538972772595
O          -0.04366618402783    1.86821912620874    0.49324547631967
O           2.16473349922909    2.02746205090563   -0.38455156481148
H           2.29840199548241    1.16658837597708    0.09882210383629
H          -1.03834904542157    1.68022497413050    0.35631037610086
O           2.37254347183083   -0.14088881592629    1.02860555257048
H           1.49121120786801   -0.54532291486633    1.18871137591609
H           2.69606225212066    0.15463943802819    1.88223613887497
O          -2.47823834468804    1.14626978400007    0.33366126921892
H          -2.40902605681493    0.31394890723178   -0.15573771884585
H          -2.49559137256977    0.90096354266940    1.28414149190063
O          -0.00807689524625   -1.30081217784195    1.54260111998667
H           0.00155162059600   -2.23052665707475    1.77594628188664
H          -0.48943895539390   -1.23455076767119    0.66667158283190
O          -1.65827542575417    0.52181802867140    2.80997269931225
H          -1.13920148406284    1.32181018600151    2.91686914381209
H          -1.04200114051465   -0.15526247007952    2.47890160821752
O          -1.18807361580187   -1.05525640413255   -0.76494836881178
H          -0.90328476477993   -1.77834854482439   -1.35303191219135
H          -0.63733544004395   -0.30540112455838   -1.09236265785577
N           0.53118929338577   -2.15057002385448   -2.59756253479246
H           0.25901966103863   -2.33098093340147   -3.55664364845853
H           1.36451769925676   -2.69640081601879   -2.41299442961260
H           0.79636637288288   -1.16993970418554   -2.54176705368256
