    26
        -50.45192225  Gyration_radius:  2.49139187731 Dipole_moment: 5.224
 S          -0.83368356722643    1.09515724522839   -1.93156808724241
O          -1.10299716513573    1.97453320940674   -0.80845442135320
O          -0.79733219685995    1.70289922507435   -3.20904595529750
O           0.51006448000394    0.37082532746965   -1.61661876446179
O          -1.83366029782618   -0.06572146788758   -1.93720350137676
H          -1.86909630766975   -0.51809004177837   -1.02253773901243
H           1.02464230233233    0.99201090103723   -0.97317649177998
O           0.77665142192649    0.64692605257272    2.17801300456203
H           0.78353641651137   -0.29150525892128    1.92543228375012
H          -0.15718918673456    0.90815541649502    2.19997341178373
O          -1.85624095953645    1.32046352494464    1.59749755161669
H          -1.59842365763998    1.63687613189214    0.69645661678288
H          -2.55616792358938    1.90112551694531    1.89861408667567
O          -1.87946801019948   -1.10559501559793    0.38301044973828
H          -1.00836125569143   -1.47098019642818    0.63934347445847
H          -2.02237250485242   -0.33543361951883    0.96290085018607
O           1.53092161530451    1.96039010294667    0.03323457671299
H           0.81993455084624    2.60654495490664   -0.04662111119597
H           1.37862489573081    1.49773935488472    0.90409130416570
O           0.56960444313315   -1.93757709858736    1.20668397528036
H           0.67406530915104   -2.75563581481022    1.69419753513354
H           1.12917382299788   -2.01418748268148    0.37979714231876
N           1.97216787537722   -2.07993696244159   -1.04124258665576
H           2.95980890750500   -1.86831519058189   -0.97303931501569
H           1.52096856046388   -1.28733946169528   -1.49200698765252
H           1.86482844167746   -2.88332933287656   -1.64773130211873
