    26
        -50.44394912  Gyration_radius:  2.47672177179 Dipole_moment: 3.907
 S           1.13563759384692   -0.19576767138307   -1.65054845494361
O           1.34308520900830   -0.37304817358862   -0.23476629859499
O           1.78356917206797   -1.14977909485280   -2.48633633096775
O          -0.42007200682304   -0.28864496727714   -1.90108390885850
O           1.43828461203885    1.23620929673131   -2.03572354902347
H           1.08323408717087    1.82562536650787   -1.24359083159693
H          -0.60168967979072   -1.27679655210988   -1.88390705361056
O           0.47600614549157    2.46728385523119   -0.08214214469513
H          -0.40516555985708    2.07911407975832    0.02365421574796
H           0.98045228458689    2.18176971548261    0.72442795319525
O          -0.32276497385488   -2.82768552602431   -1.64269548373292
H          -0.20327016851390   -2.89487172983049   -0.67487054905664
H           0.55692165687393   -2.81096823523495   -2.04115724397086
O          -0.77018957299569    0.00821170322511    2.18779121616615
H          -0.55188948889829   -0.88510162732760    1.88553999616684
H          -1.26201143513989    0.42605950790579    1.46378836812290
O           0.26372055164869   -2.37807302800544    0.99424499985756
H           0.74772788278346   -1.61558096087955    0.59274201815034
H           0.90240716783374   -2.84436882301570    1.53684462161638
O           1.37796787948080    1.62231969411024    2.25153647637017
H           1.23060829470819    2.21622818767052    2.98980932915572
H           0.67832475249444    0.93286559065102    2.30593754112696
N          -2.17810702882306    1.17450060592380   -0.05790858908696
H          -2.99345939666533    0.64800808671258    0.23715941126904
H          -1.76396897934033    0.66687947778871   -0.83751765193584
H          -2.52535897933271    2.05561121182683   -0.42122803687774
