    26
        -50.45410597  Gyration_radius:  2.41924920274 Dipole_moment: 4.716
 S          -1.12257513467771    0.74672000751080   -0.57575232655001
O           0.30498836335117    1.00530951725080   -0.64866724124860
O          -1.82719940232308    0.94907481016406   -1.79776593794893
O          -1.33527018041667   -0.68387100200974   -0.05668624190427
O          -1.71595992668480    1.58648462694584    0.55384293357532
H          -0.92030079432235    1.95276777711998    1.11980283642392
H          -0.72607958601712   -1.41853144642111   -0.57015621615337
O           0.19211963468247   -2.20989349300485   -1.24650361132636
H           0.23469576527046   -1.69834589002498   -2.11239167104611
H           1.00384472424416   -1.99870330340379   -0.75056124699178
O           1.08406095974958    0.06010759890561    2.71912466006776
H           1.45425575825823   -0.43492326894140    1.97178449254652
H           0.19837597716615   -0.31801991424005    2.88747814749920
O           0.33936486459562    2.35966685835507    1.75378257644810
H           0.67019533435593    1.54286547764956    2.23555065539264
H           0.88823281170802    2.43764858300261    0.96689761693074
O           2.00840872950849   -0.78432032294992    0.19832040627582
H           2.90601937597756   -0.50572480164416    0.01006947349650
H           1.41216510290757   -0.07057673713726   -0.13267902371805
O          -1.54175977279471   -0.59650937749155    2.68451069380099
H          -2.09153363114876    0.16998747548343    2.86103071970407
H          -1.60033985539482   -0.75624693903449    1.72970478526386
N           0.10292913677800   -0.55028780905407   -3.28585145908760
H          -0.65227761269946    0.02523771719457   -2.91289566093486
H          -0.17392779415858   -0.86468908276961   -4.20796711551020
H           0.90756716208114    0.05477294855800   -3.39402223500570
