    26
        -50.45176395  Gyration_radius:  2.46321561458 Dipole_moment: 4.939
 S           1.01433494442858    0.89703293175938   -1.79378884663999
O           1.09369085427212   -0.54542763068197   -1.92764777321636
O           1.41469412913172    1.66257329508375   -2.91431802176442
O          -0.44740070172017    1.23663925583889   -1.38374686808860
O           1.80873311141198    1.34789485381854   -0.55829846450798
H           1.73552422808902    0.69400382419524    0.22642367832160
H          -1.03313094993334    0.43405516408149   -1.65648181908821
O          -0.95868617522201    0.09765874080777    2.18564438458266
H          -0.98152772294918    1.03675694071757    1.83524410435052
H          -1.26526325022308    0.12788246197814    3.09267084160015
O           1.59349871189290   -0.27824474486397    1.38271078648186
H           1.59099109729753   -1.16506119990523    0.97778802413334
H           0.70022069171370   -0.15812252601969    1.76550559824106
O          -1.64839583595293   -0.87265882348251   -2.00977050425421
H          -0.87950596034261   -1.26680551228413   -2.43731164422223
H          -1.73176826099330   -1.32700600448663   -1.12777629009452
O          -1.46118555215970   -1.96381227972550    0.37760111456154
H          -0.56924486835978   -2.33624942089833    0.30667639810497
H          -1.40535707841548   -1.25313774519871    1.03647777177396
O           1.22921871949020   -2.46560151460624   -0.16837990415583
H           1.82222019674709   -3.15817691620360   -0.46246543884877
H           1.20418853285404   -1.79193432074271   -0.89031784989645
N          -0.76680084768886    2.54549875008912    1.19687642409499
H          -0.74920625222395    2.29377714188351    0.21119745836656
H           0.14432167375298    2.92961088112340    1.41784343915051
H          -1.45416344487202    3.27885440771613    1.31764338101483
