    26
        -50.45004742  Gyration_radius:  2.538111429 Dipole_moment: 6.006
 S          -1.52818289962261    2.04852170484145   -0.57783549718741
O          -0.20029745160484    1.55154966934158   -0.86514151482770
O          -1.90820214287486    3.27558864692848   -1.16629215299855
O          -2.55166906460040    0.94729909654899   -0.95992088337105
O          -1.67337042912548    2.16184380365751    0.96324314979619
H          -1.15889038096135    1.43901505838473    1.42217565181524
H          -2.13899961390995    0.03888442197526   -1.01780977318921
O           2.15631582221883   -1.68297289572452   -0.35189788856502
H           1.69499679899736   -1.25207156694321   -1.12029215907217
H           2.62432533119658   -2.43774179231481   -0.71066302818706
O          -1.65323320265621   -1.47561129156712   -1.12435852448729
H          -2.42577197715190   -2.04301270853406   -1.12876435334813
H          -1.12196823645970   -1.72065126817796   -0.30327727869489
O          -0.24780137503328    0.41236149663520    2.24043713778496
H           0.66369583257333    0.63448792556951    1.81413731972324
H          -0.20794642769033    0.68729149909815    3.15777228056305
O           0.72448233181047   -0.56354691092797   -2.26769301924445
H          -0.10416139222391   -1.05834428802636   -2.22554383629462
H           0.50132643073464    0.30488177110720   -1.88745876865986
O          -0.21397962515941   -2.02290271516801    0.95069851943404
H           0.69380033700487   -1.97718799451682    0.58716624911096
H          -0.30239313932818   -1.24624598404255    1.52625211296813
N           1.92765781865528    0.95266209458803    0.96918190374185
H           2.34260480888864    0.08320677849432    0.64771806074770
H           2.66862413360746    1.57947751761538    1.25246875581450
H           1.43903770249580    1.36321792115659    0.17569752688527
