    26
        -50.45108170  Gyration_radius:  2.4313488556 Dipole_moment: 1.771
 S          -1.50561211752305    0.84977216082686   -1.17663714174223
O          -1.74333081625649   -0.39941223150922   -0.49308951397347
O          -2.55756885981246    1.79800990848155   -1.12266146359978
O          -0.19129029216952    1.46278581543715   -0.59153715877246
O          -1.07932531814164    0.58434443582891   -2.62412512270431
H          -0.28405188590194   -0.03698116557863   -2.58233486567621
H          -0.23339024687160    1.44685986037227    0.41660275702437
O           2.47516774411948    0.83663170624243   -1.18966224614798
H           2.49675833809119    0.47003927601215   -0.27001528554901
H           1.84096941182981    1.55972257147682   -1.14552266072857
O           0.37475555361740   -1.94611987391128    0.08356583560266
H           0.78460805775984   -2.06095712717560   -0.78006082187776
H          -0.44244040085667   -1.44515912888322   -0.09947666310646
O           2.02700980561887   -0.13943080019058    1.23500778209801
H           1.46801775647797   -0.88727333757708    0.93457705869553
H           1.43422325084183    0.46849671771868    1.68850548773496
O          -0.33622630199185    1.37886869162991    1.96585208394384
H          -0.82090222503513    0.51058546471167    2.18260368881609
H          -0.89714546062750    2.09453699270784    2.26977335704416
O           1.02765314732966   -0.86968080791878   -2.47918645262067
H           1.65196674046482   -0.23943084129704   -1.99256510515109
H           1.39663071488895   -0.98614936891325   -3.35687889288784
N          -1.60068138045300   -0.87477980083202    2.33390672152660
H          -2.32169154102100   -1.04917727957573    3.02197977912479
H          -0.93998972561269   -1.64254270381312    2.36284747319740
H          -2.02411394883128   -0.88355913424899    1.40853136975216
