    26
        -50.45074978  Gyration_radius:  2.4558298448 Dipole_moment: 2.537
 S           0.85071056706950    1.25727043003308   -1.02455643934774
O           0.61334717699879    0.98207892220566    0.38061828491139
O           2.21023360055846    1.44731901374563   -1.38901230889137
O           0.26829239140130    0.11384562387818   -1.86015797649504
O           0.03061137872850    2.49974750381708   -1.41642457097664
H          -0.91913637752746    2.35581567563838   -1.10534168365588
H          -0.53130867403675   -0.39750449661989   -1.43477477352266
O           0.48804457826930   -2.91303760390241   -0.02904509616659
H           1.25456422689594   -2.27954316492276   -0.08434298862149
H           0.72860170656440   -3.67215779987903   -0.56129538458770
O          -1.38905874596663    1.91086307561080    1.97186876717107
H          -0.50913035784489    1.79175619817041    1.57527677903604
H          -1.59132968959300    1.05909117416510    2.37477676264786
O          -0.73262773088426   -0.89028786663976    1.80287949993770
H          -0.10630998199921   -0.28738937302999    1.36430082911812
H          -0.34491741655551   -1.76753397169401    1.73025451530438
O          -2.32061991065868    2.10738410392863   -0.47838876508943
H          -2.10463787428784    2.04418613779283    0.48964835561955
H          -2.87638540646043    2.88187268377776   -0.58637044151037
O          -1.50800271527962   -1.28547282038206   -0.77063385466668
H          -1.64821457100625   -0.93549703336801    0.12742670531519
H          -0.90666921782018   -2.04940276672669   -0.62511303799642
N           2.55816363674801   -1.19524627015701   -0.12207697537888
H           2.63880024814829   -0.76626774314459    0.79291775265999
H           2.37902116076488   -0.43281788548036   -0.76946668001180
H           3.46795799775224   -1.57907174677913   -0.35296726479373
