    26
        -50.46412577  Gyration_radius:  2.39969099075 Dipole_moment: 4.123
 S           0.44773921879712    1.32000936776188   -1.11691528039495
O           1.33401099701985    0.65275150314830   -0.16660102153135
O           1.05928216065541    1.46857024365376   -2.41667752212166
O          -0.82855054265028    0.57922741520391   -1.23198467462859
O           0.10016957029034    2.71649935459463   -0.53223242855971
H          -0.28762075808834    2.53896043788925    0.36362677706227
H          -0.43919499832635   -0.55992302825291   -2.28816717442358
O          -1.03921362994072    2.11063973053621    1.77554300750771
H          -1.70882243158914    2.76941106972963    1.96784336210323
H          -1.53234352312674    1.27138762645778    1.53303679571843
O          -2.15681981673574   -0.08833668805411    0.94252631667508
H          -1.65686037113610   -0.87240653205479    1.22122352699102
H          -1.80444384259245    0.12038386375792    0.05183568972709
O          -0.23736395365922   -2.02917049022411    1.56428600972022
H           0.24279872817015   -1.24312169284816    1.94354125580677
H          -0.20450455106721   -2.70997792040489    2.23762708829336
O           0.94771031068049    0.16960342758999    2.40730707560493
H           1.25777259810392    0.39935435621686    1.50712740441372
H           0.32854910624207    0.87477910790333    2.62792899797399
O           1.45185785639133   -1.93691066527429   -0.62403370954302
H           1.63548944579814   -0.99653972214975   -0.40080643687069
H           0.80132770428095   -2.19851387177360    0.05409999241140
N           0.36929895087618   -1.02699178146598   -2.79209117338262
H           0.86113030122463   -1.59610770081618   -2.01666254939818
H           0.94081079713087   -0.17480250952131   -2.99292383914478
H           0.11779066323350   -1.55877490159370   -3.61845750002705
