    26
        -50.45124471  Gyration_radius:  2.47174198612 Dipole_moment: 4.078
 S           2.07022830245260    0.39585897730575   -1.17386394763443
O           0.70254100268444    0.19287576415934   -1.61181828107254
O           2.98892592165134    0.78526383395521   -2.17581092185443
O           2.05210630296163    1.38760131162476    0.00841453343828
O           2.55325908314935   -0.91425051130031   -0.50510167299556
H           2.09589912604617   -0.95547915934893    0.37973369609980
H           1.12578642266410    1.80513354058322    0.17409195531756
O          -1.67612345000809    1.30367650222169   -1.58723935289942
H          -1.89875459852887    1.68254894969020   -2.43864323133805
H          -0.82095110686423    0.83592223829153   -1.70454393995029
O          -1.02697035924249    0.26596696719474    2.09243639386987
H          -1.49557299371325    0.18744831641296    2.92401293302411
H          -1.63025657140764   -0.14148809519036    1.38684723969582
O          -2.44728806451343   -0.72948047698281    0.20243435758279
H          -1.80809638747807   -1.41807420347251   -0.11323432142269
H          -2.42591434748755   -0.03330182799199   -0.47050897160773
O          -0.24436622729465    2.31539314701913    0.51433070752687
H          -0.83390427375091    2.14312872348619   -0.24338718471732
H          -0.54741981344341    1.70432458781800    1.21410996527876
O           1.41748073112262   -0.79799551971228    1.81701366232782
H           1.97037655765144   -0.12353495269340    2.21884014824907
H           0.49299764579355   -0.46564933535666    1.88821103991046
N          -0.40220103971134   -2.27812303594939   -0.60534617491532
H          -0.48747180254393   -3.04629316109073   -1.25854784256972
H           0.19810754011127   -2.58424796363205    0.15076316884333
H           0.07758240824374   -1.51722460683308   -1.08319397872213
