    26
        -50.44882869  Gyration_radius:  2.436271832 Dipole_moment: 4.096
 S          -0.43839894355866    2.03402660159500   -0.43526927881316
O          -1.16140240860307    1.54694091821454    0.72053167612833
O           0.01789773698138    3.37329516225597   -0.35592383772946
O           0.75697006422221    1.06121753319418   -0.68213785403142
O          -1.26618689336707    1.80593003518837   -1.69876283097805
H          -1.48559567387629    0.81023039945100   -1.72972886549691
H           1.25691940609186    0.92591056583814    0.17401974729824
O          -0.20408734255442    0.70785686141575    3.09907182467697
H          -0.70756171995342    1.21747859774884    2.44029662938049
H          -0.58663166370704   -0.17548844057017    3.08062330094634
O          -1.35243382576090   -1.11441968976957    0.97576559688914
H          -1.75676556008916   -1.42222467626326    0.15903643214361
H          -1.34576031368230   -0.14217069655688    0.88806046399232
O          -1.70367858016752   -0.69374360070864   -1.83598424782518
H          -2.16620347995818   -0.85855284877781   -2.65973917199790
H          -0.74144555074933   -1.05271605251999   -1.95871186030991
O           1.93825266821001    0.76719299008868    1.59952695520444
H           1.19010521062489    0.71967981458238    2.25960611531988
H           2.44218036021325    1.55353766714087    1.81748730411808
O           1.24686751348140   -1.90128355889445    0.64173780855017
H           0.31491063085427   -1.71840531462520    0.87174466311723
H           1.75665273617061   -1.17364615830958    1.01014355688087
N           0.73053090407500   -1.51963444463394   -2.11755689035468
H           1.26801638209180   -0.69512841685383   -2.35498172300669
H           0.99127525593017   -2.27040008991638   -2.74381698440551
H           1.00557308707773   -1.78548313833608   -1.16503852969591
