    26
        -50.45497314  Gyration_radius:  2.4482358692 Dipole_moment: 4.584
 S           0.68665940040981   -0.08230081094636   -1.33069754767960
O           0.94254663023984   -0.28341952498486    0.08317599914063
O           0.49562517780360   -1.28357529366221   -2.07390305405885
O          -0.52222045469621    0.85569042333939   -1.46694512771098
O           1.82341504215269    0.74053521960013   -1.93581726157401
H           1.98162477797334    1.51200727781056   -1.29907005115918
H          -1.37345094927786    0.42899596635854   -0.95319635823293
O          -2.34410813236231   -0.16064307921530   -0.15006426245011
H          -2.04829855964217    0.05521247779040    0.74949949870843
H          -2.15489974360748   -1.13876120622799   -0.29928273587095
O          -0.46695543087308    3.00714359044151    0.33132227992933
H          -0.82149553979477    2.60311027244288   -0.47031430390062
H          -0.64453637145998    2.36217520060781    1.03858338859836
O          -1.46980422651314   -2.53473177051953   -0.63940214602043
H          -0.84685375948964   -2.28659050945832   -1.34147855370933
H          -0.89829191815372   -2.83626462979075    0.10044619549105
O           2.05961546100846    2.71647314999336   -0.33917785803516
H           2.33363815080132    3.50807779418187   -0.80781267824111
H           1.13693313642776    2.89031851200996   -0.00792400253138
O          -0.68559388707890    0.72860560705795    1.86415795420127
H          -0.01191223746880    0.34233760532260    1.25598063311049
H          -0.35809264581207    0.59779071977046    2.75508682590132
N           0.53699687508369   -2.97264407623764    1.15335702105836
H           0.60898760413630   -3.03894804412975    2.16075698354188
H           0.88712128733365   -2.06062945426656    0.86748215260707
H           1.15335030285273   -3.66996542721639    0.75523701886535
