    26
        -50.44932533  Gyration_radius:  2.56981801669 Dipole_moment: 5.068
 S          -1.20214518992023   -0.93813716475611    1.74949658126099
O          -1.29283231756477   -1.11367736407114    0.31350017225396
O          -2.01147830912519   -1.78707976136324    2.53959879978670
O           0.31437447010613   -1.10667537305448    2.11394841876637
O          -1.45665313236964    0.52385080835206    2.11671019708477
H          -0.87125787673023    1.17080972166717    1.56678958938172
H           0.65596338331193   -1.82219348148995    1.44333131616891
O           2.30319413508472    0.69179333690248    1.65186874150287
H           2.96430807289595    0.78868113813083    2.33876420870060
H           1.65422466542579    0.03623114034346    1.97042587846154
O           0.06269914976231    2.01985192742147    0.75147549264286
H           0.01155628901801    1.61011740950436   -0.14738520315705
H           0.95394408402864    1.81694769391348    1.07898324509580
O          -0.13007375071244    0.51726923545820   -1.40303784668186
H          -0.60613927600543   -0.13887302997898   -0.84958997726353
H          -0.78168401788459    0.79998127320566   -2.08273682440371
O           2.28761414802667   -0.62795540613346   -0.85940108181557
H           2.52748893258185   -0.09495667527478   -0.08798984283745
H           1.53062194353360   -0.17258669178258   -1.26786774113541
O           1.00260334093352   -2.63122647470670    0.25930241991148
H           1.59448272147010   -2.00265672465709   -0.24099242974874
H           0.14204791856185   -2.58944496280942   -0.17541873446414
N          -2.18336051675860    1.20932993865278   -3.06377269624069
H          -2.08467755514938    1.01479424932231   -4.05212163756621
H          -2.44171114134375    2.18238233267776   -2.95826421508029
H          -2.94311015186843    0.64342292407406   -2.70561682129685
