    26
        -50.44776507  Gyration_radius:  2.58852484831 Dipole_moment: 1.870
 S           0.93685652433512    0.43727601847748    0.44233538778562
O           0.20662917801888    0.84467731759663   -0.73848428644879
O           1.34313802737686    1.48941643798070    1.31110777065603
O           0.05434923210107   -0.57704258183745    1.20221841432641
O           2.14916047793952   -0.39155156978992    0.00721295742366
H           1.79345514184713   -1.32056649644032   -0.26511075856502
H          -0.05055779505420   -0.20783093527707    2.17916755637582
O          -2.32281533361183    1.10470826516733    0.14377489465132
H          -2.65551898622373    0.25580819263446   -0.15638273621718
H          -1.42386549541880    1.18196826908332   -0.22008484216934
O          -0.57154636341559   -1.30819123329759   -2.18559385662080
H          -0.47855067643905   -0.48265294413448   -1.67759272786604
H           0.02347419947152   -1.16292448651091   -2.94278034797392
O          -2.37838372372772    1.75480874584048    2.77038068965266
H          -3.24269226299736    1.49341625022297    3.09199443531784
H          -2.38664240495390    1.61588107557158    1.80103941925658
O           1.03299821329627   -2.57584240127367   -0.57279168156727
H           0.52644509362209   -2.74128446457448    0.22723707821404
H           0.37710315314507   -2.24295059505552   -1.25205857698510
O          -0.09682215541076    0.57693506321896    3.39441044340226
H          -0.96520433072352    1.04495958530360    3.31352681221508
H           0.57068412797301    1.21501187572493    3.09958857673934
N           1.67532682673231   -0.17176178446969   -3.29581964318542
H           1.43031443430885    0.54523206479820   -2.61952037187295
H           1.98190580422305    0.29507779049776   -4.14074046516312
H           2.47075909359732   -0.67257743943755   -2.91703415135460
