    26
        -50.45146371  Gyration_radius:  2.53128409647 Dipole_moment: 7.054
 S           0.82679004382020    0.58721480943516    1.73600137673529
O           0.22863607496566    1.15623504955600    0.54152182139846
O           0.08581776513165    0.79451361474476    2.93240181390199
O           1.03912673570378   -0.93230306208256    1.47580489234949
O           2.25717791757827    1.07488192892197    1.86294782635891
H           2.71558650155139    0.82174943028307    0.92485995966097
H           0.29576380640395   -1.35813884098489    0.94011700278743
O          -0.74758488148303   -2.05158134794633    0.03271699704329
H          -1.03239664949194   -2.87259465219179    0.43700954934669
O          -1.84766992050307    0.35509324545340   -2.63405494959443
H          -2.00049488640045   -0.08753958627667   -3.46967879490639
H          -0.90171454617769    0.24690787702313   -2.42368671321622
O           0.66372934901482   -0.25502391255083   -1.62251555202473
H           0.34257053252194   -1.11076828360826   -1.30867148933907
H           0.44980860149286    0.36885185872798   -0.89367476007894
O          -2.28432500772114    1.37110294630934    1.50763127054409
H          -1.46361329910468    1.55875325571884    1.02612131439873
H          -1.98915494336454    1.19082098246323    2.40595983333751
O          -2.81876130575090   -0.59958136664806   -0.25103995507263
H          -1.59277112047295   -1.48046452175991   -0.06594336778599
H          -2.78741204073964    0.11651060057990    0.41858914509468
H          -2.65266935578892   -0.16427756638698   -1.10881277306375
N           3.22097085048137    0.39625713495941   -0.38310410779680
H           2.43003636978377    0.12709140289943   -0.97274856849062
H           3.83536951526404   -0.39947174232849   -0.27176501998084
H           3.72718388332266    1.14576072557880   -0.83598674165261
