    26
        -50.45146378  Gyration_radius:  2.53147814848 Dipole_moment: 7.040
 S           1.67722619874202    0.85814901845763    0.70056514862955
O           0.50454900392398    1.18986825146955   -0.08888921631967
O           1.75865661594160    1.51974539475972    1.95713432405578
O           1.69402381055155   -0.68638551553952    0.88912305714129
O           2.92369185760091    1.07434456188591   -0.13590873129159
H           2.75819358127185    0.49748104779552   -1.02642102247065
H           0.77558485878298   -1.08665572653426    1.02060026178294
O          -0.60365420929849   -1.77969854918199    1.11682972612665
H          -0.60898573562476   -2.38683740263763    1.85843300312069
O          -3.02297785720705   -0.02010146680090   -1.15692583088799
H          -3.62847505248513   -0.63800575017937   -1.56829373220151
H          -2.12778237357501   -0.24953196277819   -1.46820629757606
O          -0.38894293824697   -0.81092625646221   -1.52546180658239
H          -0.14239391311064    0.01585710049341   -1.05446067772286
H          -0.47479195403238   -1.47066215203230   -0.82459096443498
O          -0.99678740875063    2.14470069795192    1.94283278934184
H          -0.59925438919399    2.03055773081535    1.06549490789274
H          -0.24116248963466    2.15865732638619    2.53910975467350
O          -2.45572287780085   -0.08260172329966    1.52732697723008
H          -2.80896487318635    0.06293989994287    0.62897899464904
H          -1.34955921953390   -1.10247515878397    1.30460753291761
H          -2.04189674035825    0.76728691474304    1.78921239736091
N           2.41687073467167   -0.34944968398953   -2.17355764589154
H           2.56698493529186    0.14427306544067   -3.04354159702861
H           1.43119489231306   -0.61384288545489   -2.10901670263971
H           2.98437557315332   -1.18668677706229   -2.16497465947931
