    26
        -50.45526224  Gyration_radius:  2.41593915041 Dipole_moment: 6.814
 S          -1.49372017872824    0.27976913121378   -1.16261595798641
O          -1.14053320334757   -0.95840001958183   -0.51434695588766
O          -2.65125426163278    0.92436259196921   -0.55331449299576
O          -0.34399823453883    1.22064549184613   -1.15773421347001
O          -1.83202173760007   -0.01614916996919   -2.65513901188198
H          -1.01262653368245   -0.45632398629711   -2.96810510265587
H          -0.58520390577834    2.20228784687158    0.23505300538715
O           1.84940171517397   -2.05478990191309   -0.50454493747868
H           2.34251854242684   -2.86854322218034   -0.61456404559976
O           1.74960611026132    0.54953080716055    0.34306879938476
H           2.00217335211117   -0.34637122171677    0.06387466902543
H           1.03520087141693    0.80624100006678   -0.27676074290492
O           0.70759390437403   -0.76104062004486   -2.77100890227650
H           0.99225007510383   -1.35406488444969   -2.05422601007207
H           0.76476394773115    0.12773293235269   -2.39994808851333
O           0.35309521084582    0.55168462740979    2.51911178936811
H           0.95569107681920    0.49928893765980    1.71352049370799
H           0.91334174830946    0.79889744966825    3.25650390607150
O           0.05270861225984   -2.20251674421912    1.47392236518372
H           1.18795274396840   -2.21897962668566    0.21148594602034
H           0.12468676075827   -1.46203437155634    2.08712817888100
H          -0.57062503387849   -1.88850916614264    0.79148473624140
N          -1.20106612052184    2.20282384676626    1.08207547320338
H          -1.42451668440629    3.13130659328520    1.42429785183603
H          -0.73687336571124    1.59726501577686    1.80512797538415
H          -2.03854540173601    1.69588668270162    0.62565326201656
