    26
        -50.45526224  Gyration_radius:  2.41589694576 Dipole_moment: 6.813
 S          -1.32439406540118   -0.60088465936684   -1.24334012513085
O          -1.25322741674461    0.70746345259418   -0.64228953068014
O          -0.91672360839366   -0.60049449397640   -2.64354474730800
O          -0.49258338431990   -1.57159762403669   -0.48635945305257
O          -2.79660384832655   -1.10710709126118   -1.16606031852890
H          -2.98099434908225   -1.05603151335902   -0.20350054673742
H           1.02228870666790   -1.58298894228215   -1.30256307812610
O          -0.74649983256098    1.09680567198748    2.47693181709989
H          -1.05101293820320    1.62121348958500    3.21841185663352
O          -2.38076920790962   -0.99669111871178    1.44787812828491
H          -1.64357063531204   -1.53735060680064    1.13954217210782
H          -1.97509353156740   -0.17009619156389    1.76213750235822
O           1.12808249738771   -0.56967971665282    1.37264103271085
H           0.49988044159735   -0.99258448822972    0.75052987821206
H           0.56702780932287   -0.02750821186314    1.95199948973318
O           2.43587854090320    0.84886420106861   -0.34867625012334
H           1.95664285666905    0.35132870143095    0.38454433159222
H           3.34325095454774    0.94764003210135   -0.05599867297868
O           0.19448849197257    2.60082341024499    0.47286416329328
H          -0.42730203219312    2.08086692976245   -0.07109413696116
H          -0.46131724943736    1.73423758254253    1.77723863418987
H           1.06559771067973    2.31103873047295    0.17838205181450
N           1.50670614791060   -1.01795235788027   -2.03933245049128
H           2.14416212762317   -1.55768898905361   -2.61506994540856
H           1.97194161758554   -0.20880982503499   -1.55576130325908
H           0.61414420657897   -0.70281639174609   -2.55951049922319
