    26
        -50.43535834  Gyration_radius:  2.65623221784 Dipole_moment: 4.882
 S          -2.56850931172060   -0.15589979375786    0.58652907495843
O          -1.84343741995437   -0.52048556386982   -0.60793280887604
O          -3.16042779344414   -1.19475445375258    1.33602171820468
O          -1.63253491514970    0.72275201444054    1.45592433995794
O          -3.65225177674999    0.89652595784355    0.18842591245183
H          -3.21963006366590    1.55048036968786   -0.38272538603381
H          -0.78425968906536    0.17314474505061    1.72830890310168
O           0.41797681655281   -0.57511181102935    2.00844954964844
H           0.70485527004763   -0.42351557927453    2.91148734581519
O          -1.41555752819834    2.06007028793563   -0.93626849433933
H          -1.40416069781833    1.09887741120127   -1.11021699365350
H          -1.23628946516163    2.14468647434836    0.00856581370534
O           1.31939599633379    2.30085989274818   -1.26715884780050
H           1.64172494788012    3.14714892661835   -1.57811897923730
H           0.35003778351235    2.31563843763776   -1.34447149567640
O          -0.07136458105927   -2.57572961156603   -0.03538570598198
H          -0.75590838716168   -1.99346712551326   -0.39373353936648
H           0.07320614172194   -2.27089392075497    0.86635531920750
O           2.23292684131246    0.38058938702024    0.52391351718574
H           1.16006922390877   -0.18095377142574    1.40124494834179
H           2.41605973360778   -0.38134842977456   -0.09573508108016
H           1.93683768327479    1.10165234970057   -0.05454510366081
N           2.42510647995969   -1.68286785081455   -1.14910337514130
H           2.33883911068387   -1.43510260211794   -2.12657300757569
H           1.55494374536270   -2.14242125730096   -0.86840894597053
H           3.17235186494931   -2.35987447327760   -1.06484864823369
