    26
        -50.45127727  Gyration_radius:  2.47994968136 Dipole_moment: 5.946
 S           1.11414479889914   -1.27919415554715    0.75604081195917
O          -0.09838570972067   -0.59604141050520    1.13610958801030
O           0.96418260302657   -2.67214798831379    0.48937220516643
O           1.70601716891099   -0.54131156219628   -0.48814456014175
O           2.20091245744338   -1.02285358139806    1.78539120419010
H           2.34015192250439    0.04485750262538    1.80451833864178
H           1.05170753431941   -0.55711588205062   -1.25237041008219
O          -0.01476154306718   -0.47629752962197   -2.39228488115658
H           0.35599918669075   -0.18022796577838   -3.22549797728044
O          -3.07320180687058   -0.35743406970940   -0.16605317681936
H          -3.88649906277581   -0.69442626884481   -0.54538092912157
H          -2.43670802978394   -1.10489835548349   -0.20242240572509
O          -1.42821038921555   -2.39436424857929   -0.84201043626977
H          -1.01254879368032   -1.95768743676053   -1.59564508807152
H          -0.69901922528222   -2.66669796376312   -0.26589289582494
O          -0.30592199253651    1.97657218223467    1.00813618841401
H          -0.28613234875999    0.98665239777532    1.06094214755885
H          -1.04436477228937    2.24204158710427    1.56036068105936
O          -1.49542642060309    1.38764114392712   -1.42957565109204
H          -0.61365692523734    0.27466378860967   -2.06165214738694
H          -2.18166098832281    0.82967999438656   -0.99590781835756
H          -0.99891091246026    1.77503364097159   -0.68860961399811
N           2.45054470488594    1.49379998452450    1.68166706370267
H           3.04572355580878    1.67949408029952    0.88546842865176
H           2.82917223091015    1.95208667855394    2.49972227533603
H           1.51685276721591    1.85817541752641    1.48371906864268
