    26
        -50.45137688  Gyration_radius:  2.44223909507 Dipole_moment: 3.692
 S          -0.75062012090348   -0.11870748875645   -1.77357842056567
O          -1.12379003698810    1.24824199108882   -2.00135200591909
O          -0.84321423605086   -1.03296891268628   -2.85761660601089
O           0.70348833830883   -0.14617924160730   -1.23829205683368
O          -1.60128657562079   -0.68561147658529   -0.60947087349771
H          -1.62091071938817   -0.05800737630802    0.17899388838332
H           0.97190351942206    0.70404254982458   -0.77649459408081
O          -1.56057728953004    0.81727078663305    1.46449764468018
H          -2.13460818249375    0.45213443673079    2.14004102901614
O          -0.18901965015059   -3.05060612939590   -1.16949517937072
H          -1.08019707223431   -3.25759919065454   -0.88053074028823
H          -0.29709289290610   -2.42126096330738   -1.89963512472075
O          -0.95770982401080    3.06588379466317   -0.05748844464442
H          -1.39042499209650    2.55263363039275    0.63902029176475
H          -1.17598363577379    2.59974843096419   -0.88728084747131
O           1.42017658881611    2.04854472719103   -0.07172795853959
H           1.97754623375860    2.55516098217423   -0.66497977229858
H           0.54998519351406    2.54963980376698   -0.00524660319626
O           0.86005512496187    0.29693347222035    2.07456323949377
H           1.35271032866124    0.93450895604133    1.54464422055019
H          -0.60601037755946    0.62627414922918    1.76994012775090
H           1.08792578729481   -0.60414427157031    1.69694332201200
N           1.51769628629127   -2.03688272471669    0.98579069799398
H           1.59333078521087   -2.82875579860936    1.61299336471151
H           2.42209042641788   -1.90882009832346    0.54792378350463
H           0.87453697308633   -2.30147404841891    0.23783761760861
