    26
        -50.45933176  Gyration_radius:  2.41990111042 Dipole_moment: 2.245
 S          -1.00673615674397   -0.60155267174032   -1.81260273813504
O          -2.20937467257030   -1.27245118466483   -1.41409341603101
O          -1.13889971197204    0.84470125573538   -1.89894051072221
O           0.16119246466715   -0.96659655505279   -1.00521859151422
O          -0.65910929760365   -1.11896998974224   -3.28107596692687
H          -1.49981077353165   -1.42686218335844   -3.60571776847539
H           0.94302853019246    0.53754706528223   -1.00832773921300
O           1.34982524552435    1.42478351736979   -0.92314523368856
H           0.85824147982046    1.95599062128672   -1.55624787977672
O          -1.11947050617344   -1.34125796607518    1.33019604675069
H          -1.74269167731873   -0.60274850275698    1.20090171581811
H          -0.76508187579244   -1.49289995588570    0.43527726075358
O           0.87763956683025   -0.24490718081806    2.41564142673412
H           0.04266009644151   -0.77167370642490    2.09902740346752
H           1.64689537151432   -0.55554856495020    1.72405859328272
O          -2.17503028182048    1.03547430235582    0.47899414069462
H          -3.12893986652040    1.06911727757797    0.38943703702633
H          -1.82477443820102    1.00087556364468   -0.44472137068611
O           0.23826022224037    1.98295205698694    1.43849930751949
H          -0.69901450686206    1.85384300678155    1.21926809525520
H           0.65419749128132    0.73482001430446    2.13590668862062
H           0.71990530001092    1.91239827452113    0.57906308076162
N           2.50577679608350   -0.93648976660391    0.61015947956098
H           1.81606954677328   -1.22458091363309   -0.08377769894106
H           3.18076982619596   -1.67881223950578    0.73613947772211
H           2.97447183756577   -0.11715156463166    0.24129917014840
