    26
        -50.44246727  Gyration_radius:  2.56912065291 Dipole_moment: 3.918
 S           2.58413566274683   -0.34288902008765    0.24770252054405
O           2.56924849902697   -1.06388620967146   -0.99029984663007
O           2.05493656934352    0.97873324982596    0.23590866724384
O           1.95273651401595   -1.18184173386709    1.36201690550613
O           4.07116615622334   -0.26420015568029    0.74205212530691
H           4.45574571465824   -1.10857088718879    0.52088708876488
H           0.98503924387432   -1.49749418647016    1.11881551737646
O          -0.34630774600557   -1.95203348979841    0.78617276902124
H          -0.54000209265279   -2.74107977283805    1.29579657762062
O          -0.31021745051576    1.87898140589903    1.39946266607529
H          -0.50068910180328    2.08985167439619    0.46498564658686
H           0.61952814278522    1.62074553686487    1.37860992132362
O          -0.03077156586006   -0.76591328883112   -1.73063139569699
H           0.93166404777384   -0.88185698358031   -1.73096010368683
H          -0.34082619236816   -1.29702973813084   -0.98551325428690
O          -0.21049601698648    1.93761228414795   -1.32893929276437
H           0.71893723717409    2.13560491508342   -1.18290283645688
H          -0.22298766670428    0.98582361488257   -1.55397368755485
O          -1.96538442718739   -0.18487642060142    1.48252354569119
H          -2.43762491624635    0.02356621413251    0.63486733107320
H          -1.03547323082454   -1.21747412999425    1.11435948013842
H          -1.39317137798865    0.60548364643658    1.63644510823279
N          -2.87957773099863    0.47289037487201   -0.96788949620921
H          -2.43860057071510   -0.16645382218719   -1.61931309248777
H          -2.43661672336813    1.37514009914360   -1.10496358357158
H          -3.85439095739376    0.56116681323798   -1.22521929117302
