    26
        -50.45933164  Gyration_radius:  2.42001901686 Dipole_moment: 2.245
 S           1.98575973605947    0.84682105702264   -0.04669034766394
O           2.11046159715032    1.53845345543209   -1.29634157664467
O           1.37949908044321    1.64179945474240    1.01004140229923
O           1.31844133797589   -0.45341352652272   -0.16258306968900
O           3.46677078946336    0.49850299592517    0.43300419699626
H           4.00022938698194    1.13334116824935   -0.03552712526561
H           0.49991227747626   -0.44444848230672    1.32163787207347
O          -0.05145483064693   -0.40261620440268    2.13046637042065
H           0.30189158480069    0.35816501279391    2.60060101412006
O          -2.08478297840146   -1.20407259539020   -0.93167036478138
H          -1.42896690667573   -1.93011044524742   -0.47446474738604
H          -1.45399460494245   -0.67292841630955   -1.56009836130770
O          -0.37010970009106    0.18517211882100   -2.15585398191776
H           0.43575997838868   -0.07621192680817   -1.67436609341671
H          -0.53786501686797    1.09013967714128   -1.83446298820045
O          -0.64949018551352    2.32177904606635   -0.46867020383368
H          -0.47290504846790    3.18657565486930   -0.84283497237716
H           0.12597569751023    2.12182546071782    0.11072546942707
O          -2.23383153127867    0.51530611996749    0.89818500871107
H          -2.28739284258895   -0.51860086863959   -0.17201221355656
H          -1.51305256217233    0.17468043932510    1.48132681835336
H          -1.86680584771818    1.30684531253774    0.47155459463808
N          -0.38333864023877   -2.71142645075478    0.17396405632697
H          -0.51533944789173   -2.69621451625889    1.17865549568332
H           0.44159539030954   -2.14681321434149   -0.02816637917116
H          -0.21696672306575   -3.66255030663285   -0.12641988383237
