    26
        -50.45933163  Gyration_radius:  2.42004842401 Dipole_moment: 2.246
 S           1.54172988979431    0.79517127072814    1.28588157149702
O           2.69992642103755    0.99870625744752    0.46571746004091
O           0.60423366121646    1.90742200418243    1.26982868521728
O           0.84899492981229   -0.46835987796920    1.01552449521840
O           2.06317324432021    0.65592100964780    2.78706634204713
H           2.91215675681515    1.08680509007024    2.76094079666166
H          -0.73968382982985    0.05925339032726    1.28193515684515
O          -1.66376738600745    0.37997991024247    1.33795127427320
H          -1.57030159627174    1.26180504768777    1.70986139840634
O           1.35180749703996   -0.59648708149046   -1.62315704141988
H           1.25289797975588    0.36185261131372   -1.77232828768535
H           1.45917341393121   -0.66158996841248   -0.65681755148990
O           0.53081496573208    1.99718496090454   -1.32861874610620
H           1.14237786140413    2.67394694490374   -1.62371559414609
H           0.56444635205265    2.02404982500417   -0.34109658080345
O          -1.00028188509394   -1.47815088057711   -1.86514821115386
H          -1.09574298037435   -1.98745208519364   -0.91765808966111
H          -0.00219279544274   -1.19834321393299   -1.88801921532076
O          -1.95035196354889    0.77772403475107   -1.28573039996521
H          -1.49327425099071   -0.56972039500514   -1.72534392078796
H          -1.99139377189528    0.67406500384565   -0.30430906859335
H          -1.19846357650051    1.36991654134015   -1.45044163298841
N          -1.09097173919355   -2.47614131755217    0.45543333716118
H          -0.26311264194052   -2.01223490823635    0.82914955889582
H          -1.02137358793328   -3.47010025772576    0.62791609674534
H          -1.89082096789987   -2.10522389630192    0.95517816710162
