    26
        -50.44724331  Gyration_radius:  2.48588211233 Dipole_moment: 2.979
 S           0.29570682133222   -0.41014412573132   -1.80215479435120
O           0.57198612590899    0.88906572118931   -1.25539814631396
O           1.39976500131077   -1.16958299488926   -2.26908950068828
O          -0.44627932407256   -1.24102108637560   -0.71345399669642
O          -0.74492513798215   -0.29323077643487   -2.93854667648778
H          -1.55456525203604    0.17746345990871   -2.60633243726526
H          -1.07335322137885   -0.64679376858079   -0.17611938702579
O          -2.02519577485963    0.24957033713483    0.65054796714497
H          -1.91586535438124   -0.10873358909869    1.54136807425223
O          -2.93108896016363    0.67378162037407   -1.89472687733883
H          -2.82317292223714    0.60830238510090   -0.93169851284596
H          -3.68164506752684    0.12565085527463   -2.13402776603196
O           1.29182057509178   -1.69495053144358    1.53667868849060
H           2.02722777299050   -1.20635382247572    1.08973812639592
H           0.74082359529772   -2.01728603096384    0.81652099002353
O          -0.16688459367933    0.14452144111573    2.73662610101713
H           0.06577190982483    0.14754013666958    3.66525288159647
H           0.39220785897322   -0.56144689263896    2.32092400669172
O          -0.37593936717297    2.21330251777549    0.89099042834772
H           0.00138744363329    1.72385112302483    1.63995369750944
H           0.11624088891543    1.94111051701283    0.09735366956797
H          -1.51596619956697    1.11995630043705    0.70394199082215
N           2.98546762168687   -0.29532873789739   -0.01547395289489
H           2.67482386632478   -0.72768625382559   -0.88191187037763
H           3.99813814041746   -0.31481308306651   -0.00163490831111
H           2.69351357333421    0.67325530838186   -0.06932777526606
