    26
        -50.43756357  Gyration_radius:  2.67110452203 Dipole_moment: 3.884
 S          -2.27999050560363    1.24226591683620    1.39946035797735
O          -1.69566916930516   -0.05671670376207    1.56272245664904
O          -3.35386327974324    1.61560977012235    2.24451162732271
O          -1.08100269661585    2.25946825287310    1.65958571321999
O          -2.63979510468805    1.48704291368829   -0.05670754421513
H          -1.82404773419933    1.21000220108607   -0.65443660438578
H          -1.48738050713077    3.10392309271883    1.83570360087619
O          -0.68674994125809    0.91460714110569   -1.47863179014322
H          -0.87893679012527    1.23160265056689   -2.36372128028358
O           0.95812470413338   -0.07024180455766    2.05503273146599
H          -0.00298348622847   -0.00536529268806    1.90139595341329
H           1.14996111597068    0.49424265301315    2.80489297372221
O           1.91186246635785    1.03692166137501   -0.30169367747768
H           1.05409760105646    1.21603345794959   -0.70761384577126
H           1.70313264247216    0.64311845402590    0.56211988548197
O          -0.38389590810014   -2.37647601229984    0.77919829748931
H           0.42428611924482   -2.03134221684414    1.17393132334872
H          -1.08512328163320   -1.79388302616120    1.09904741258447
O          -0.25908127368898   -1.53805273155726   -1.77270976732718
H          -0.54612544131701   -0.12589888438505   -1.58155467917678
H           0.72648755175563   -1.54485661473519   -1.91617971866147
H          -0.38505642044079   -1.96959150127619   -0.89960491117142
N           2.40642850968953   -1.31509779660374   -1.88011943046161
H           2.91851226366563   -2.02095832040322   -1.36653332942772
H           2.44912844274339   -0.44567425766019   -1.34154790321074
H           2.88768014298136   -1.16068297239308   -2.75654784194732
