    26
        -50.43444544  Gyration_radius:  2.96694603723 Dipole_moment: 1.670
 S           2.94503802932083    0.05548325175265   -1.24225685008702
O           2.97452123334913    0.77464730788436    0.00406469078367
O           3.01985953747808   -1.36124388322367   -1.14817449014182
O           1.74667701015726    0.51144372932435   -2.07927147377747
O           4.14145119427784    0.57049363606586   -2.12214354455671
H           4.15255120781397    1.52317064397231   -2.04611536030806
H           0.87371559502471    0.17065252762676   -1.60183200294626
O          -0.18781353555773   -0.34712736113125   -0.77399714850093
H           0.29292945002012   -0.72559010809852   -0.00538838851081
O           1.49109693909097   -1.10345925746188    1.19114033541120
H           1.94424023271072   -1.85811349979954    0.80129054693513
H           2.07199519979611   -0.34373956632516    0.99771720824555
O          -2.50793892222225   -1.65817483854267   -1.40297493341378
H          -2.58516824467171   -1.65432273081779   -2.35803285970720
H          -1.61729147439759   -1.31243821593906   -1.20129047221833
O          -3.83172562625219    0.11171093409014    0.20860203654306
H          -3.44307119339592   -0.62699107317055   -0.30051324168003
H          -4.59407665826322    0.41304349764269   -0.28705466362048
O          -1.49933453748692    1.51793254063526    0.36544925790942
H          -0.69490230901093    0.45925302962180   -0.39058287687283
H          -2.40069111776245    1.14018189253413    0.37356233694017
H          -1.14388881051394    1.36429637276937    1.27295126720155
N          -0.41768012999290    0.71106443537186    2.72580667818452
H           0.19674423258694   -0.03482005128211    2.41555566753497
H          -1.07747518524554    0.31514889809534    3.38363606605543
H           0.15023789306511    1.38749789842389    3.21985222438066
