    26
        -50.44724325  Gyration_radius:  2.4858549907 Dipole_moment: 2.978
 S           0.90719961381959   -1.29890239818092   -0.99887128602898
O           1.34353747005001    0.06845236282514   -0.94200299019118
O           1.76049736714263   -2.27986196966112   -0.43026244166718
O          -0.48062521435618   -1.38955894765303   -0.29773671178533
O           0.59928416473648   -1.69314944597840   -2.46116293102246
H          -0.05141128421260   -1.05172765188089   -2.85157914752549
H          -1.03042031962374   -0.55357504446655   -0.48262982203291
O          -1.87177999019349    0.71553553767826   -0.75271141270741
H          -2.30393185119550    0.85684442878598    0.10002583620618
O          -1.30695087913873    1.54229067248219    1.85818768048991
H          -1.52661880383092    2.00195866440570    2.66872049586906
H          -0.91018248239556    0.67726492398967    2.13775589370394
O          -1.32992672120311   -0.14591937889482   -3.29131500982454
H          -2.03177672667503   -0.67216127777037   -3.68058941876938
H          -1.69621708226454    0.28029139599640   -2.49917427542145
O          -0.21879994433058   -0.77145779074922    2.50217547280273
H          -0.46281729198423   -1.36891126499436    1.78830098782489
H           0.75738342121714   -0.64533637818566    2.40022772047410
O           0.06422612753003    2.37920004317370   -0.41087316573093
H           0.72969889376612    1.69886007038463   -0.61213245662563
H          -1.17257624165194    1.44417284805261   -0.76378202855671
H          -0.12920234452976    2.31424824171320    0.53847724327771
N           2.35929228823177   -0.51303372816576    1.77833556705976
H           2.48170898103566    0.31252778535503    1.20407316192974
H           2.34064291789515   -1.29946054481759    1.13386789540596
H           3.17976594212979   -0.60859114325169    2.36467516293803
