    26
        -50.44665497  Gyration_radius:  2.47579331514 Dipole_moment: 5.164
 S           1.10282686531715    0.73525979735266    1.52616403569266
O          -0.28158977905875    0.46576291006178    1.23780250757592
O           1.69923322178005   -0.06681032479006    2.53350580462247
O           1.90031051085477    0.61573644136512    0.18903963663520
O           1.28320686267116    2.22679062818333    1.86032225994200
H           0.91810284238392    2.69705510450839    1.06321655203132
H           1.42518153761106    0.03811805451053   -0.48336177319744
O           0.76003069515834   -0.77984383851249   -1.64275188316585
H           1.41086180552300   -1.32065239642561   -2.09262296955688
O           0.53119032291184    3.11485785206076   -0.45828674076313
H           1.36833410122337    3.00589083540053   -0.91675574690366
H          -0.10847567459291    2.53710112804818   -0.91831271740336
O          -0.84613271194313    1.36992543226881   -2.06833428531593
H          -0.27258511788889    0.58350948631208   -1.98912523001617
H          -1.00672544484161    1.51083277760785   -3.00282024340578
O          -2.48585485062441   -0.12418294288650   -0.25625588836152
H          -2.25695722840704    0.49350243476552   -0.96186863584876
H          -1.87688888295686    0.10425355360918    0.46208485351745
O          -0.99972474015731   -2.31452666662728   -0.71084930052160
H          -0.67840203190338   -2.51543321614472    0.20295932212504
H          -1.72245299256443   -1.65935299155711   -0.58231681686653
H           0.04629384806148   -1.44095324202051   -1.26470404192432
N          -0.05728194903759   -2.41452119403210    1.81183202704359
H           0.91384173550748   -2.61860259177304    2.01529954470259
H          -0.61225565302806   -2.83715340593559    2.54656852297194
H          -0.15408729195737   -1.40656363528793    1.89957123639086
