    26
        -50.46114290  Gyration_radius:  2.69244145985 Dipole_moment: 2.321
 S          -2.21749896006799    1.23737439012871    1.08055897785874
O          -2.13551553859597   -0.04850213102914    1.77016100210863
O          -1.48870777570838    2.29142358348977    1.72021766538154
O          -1.83300800153932    1.07572161622478   -0.33064549650997
O          -3.75865249190233    1.61550826176183    1.08046410507997
H          -4.19798838138143    0.77019401117508    1.04916454479087
H          -1.23942236502510   -0.25350455304136   -1.07046450352307
O          -0.81574273410172   -0.99538243716141   -1.56736017034375
H          -1.45589636819426   -1.27282094225430   -2.22371265911266
O           0.62971872949520    1.88387853139137    0.07762344491432
H          -0.28929819013169    1.67515460613866   -0.21034634613234
H           0.51218646474620    2.64451748173816    0.65537774101679
O           3.13945451812848   -1.39364973310481   -0.97239177515798
H           3.66226705564585   -1.83661795433895   -1.64116994009724
H           2.65248399892957   -0.66864571575979   -1.43571628362335
O           1.53684756303674    0.38854957313485   -2.11246431121202
H           0.69847782371853   -0.10332606607027   -2.07624787968087
H           1.42765655170634    1.11544022799902   -1.48548181827128
O           0.90374950256290   -2.34782956253379    0.12561333207932
H           1.78732812507769   -2.13842040624750   -0.25376540124084
H           0.68995089035765   -1.20363252469994    1.12953764761643
H           0.25460376164570   -2.07970524657528   -0.54652180850376
N           0.46392229815046   -0.30983117914295    1.69255633700581
H           0.94475910953382   -0.30230887803372    2.58560308109462
H          -0.58786517973080   -0.27407012299682    1.83512745194572
H           0.71618958363417    0.53048515978760    1.12428303251309
