    26
        -50.45701859  Gyration_radius:  2.41425997208 Dipole_moment: 9.089
 S           0.93228535374647    0.05453369474688    1.04525217678068
O           1.23523184650055    0.85708916284668   -0.13452620078274
O           0.08590817877555    0.73141432934671    1.98835003100726
O           0.14344056321825   -1.22389071725866    0.50928285121514
O           2.13473163202153   -0.55374242308136    1.60556629659615
H           2.47418269808963   -1.45177672355279    0.56212649414931
H          -0.57762509460482   -0.93994968143114   -0.08310389601855
O          -1.61445927896999   -0.34230513872264   -1.27602795284622
H          -2.44837171790964   -0.44699419057222   -1.73697408582928
O          -2.54941832552272    0.03673682843752    1.52605954440742
H          -1.64674388305641    0.13254854774632    1.87055987153422
H          -2.45684329780194   -0.25619898018107    0.61345654200312
O           1.23187670503768   -0.80900154261351   -2.11580366984499
H           1.29892464379756   -0.02072461771438   -1.52394553752398
H           0.28309052790413   -0.96313102815712   -2.19785004671447
O          -1.79692166200636    2.71934327487729    1.40030277376981
H          -1.00136436138233    2.34357971666738    1.80473398678396
H          -2.47498199322149    2.04248502815252    1.54749663821005
O          -0.94860967078089    2.11991132898265   -1.06104072561272
H          -0.03484104551888    1.91132885522320   -0.79780951868939
H          -1.41681990972601    0.65400185509490   -1.26519685216913
H          -1.35772036137185    2.49927327539415   -0.24781186386809
N           2.61645256007708   -2.13538319368554   -0.30810562555155
H           2.23134238315452   -3.04310503854418   -0.06314762462489
H           3.60049763408198   -2.21181245614252   -0.54857186929122
H           2.05675589545230   -1.70423018586895   -1.11327173709097
