    26
        -50.45121228  Gyration_radius:  2.60776398521 Dipole_moment: 3.746
 S           1.07566672501539   -0.17561136366250    0.10238362168463
O           0.84610870358688   -1.24691785480969   -0.89811487244825
O           1.25573419693458    1.11270166350648   -0.55433262598725
O          -0.28545476566172   -0.09845047191085    0.86831884398816
O           2.11617799236548   -0.52283073867126    1.02658576013190
O          -2.64501742283310   -1.98286116980868   -1.73083164240658
H          -2.87046153988160   -2.78077034076181   -2.21276697836178
H          -2.15654021527610   -2.28027238939280   -0.91138160263107
O          -1.09537680240431   -2.66213383891478    0.26444779547235
H          -1.25443917943787   -2.05419589655578    0.99351663491334
H          -0.26201005738310   -2.33707537805099   -0.13204150770531
O          -0.67132697032132    1.78047688628817   -2.08376707093923
H           0.06923785395976    1.59335062836737   -1.43086656815554
H          -0.29863242295793    2.37395834323374   -2.73909087118093
O           2.49015917848126    0.90472936972157    3.24805020821868
H           2.45010514687761    0.38864700441805    2.41569810983295
H           2.82165162604844    0.29725576414153    3.91105911294407
O          -0.70899735304586   -0.66500913895230   -2.71558865375256
H          -0.81910876768810    0.34815185186393   -2.55338749836715
H           0.03392092189462   -0.93957930190047   -1.98316507454964
H          -1.56211814372157   -1.14528015074275   -2.38978406848358
N           0.27117692557435    2.11527273477777    1.96335363835140
H          -0.34916499623236    2.82797847740022    2.32367005464178
H           0.76960476049480    2.47357580859396    1.15666432299685
H           0.96599625635147    1.88014429688585    2.67096824175704
H          -0.18689167077309    0.79474520498374    1.39040267011179
