    26
        -50.43964654  Gyration_radius:  2.57370568605 Dipole_moment: 4.578
 S           1.00707151541709    1.86856937765619   -0.88034574042804
O           1.58889269922790    1.27339018169525   -2.04041103023977
O          -0.39881781065260    1.71377492371283   -0.68741829907104
O           1.76912043956520    1.46239329882367    0.38026353444679
O           1.31208943366164    3.40990623318203   -0.92389590469589
H           2.15195599396204    3.49259431006900   -1.36834347315431
H           1.70708849399106    0.40683000209256    0.53142297231191
O           1.58892268155525   -0.97402838662499    0.74837378440097
H           2.33668361501045   -1.27580987985619    1.26933299395522
O          -2.25255652734076   -2.21203312914257    0.86407114684138
H          -2.18693537605299   -1.66252742363594    0.02874890297205
H          -2.04553990572260   -3.11104471291086    0.60530307650198
O          -0.72358669202785    1.62928280310438    1.99722251595403
H           0.06646033532979    2.10903798561379    2.25302719948060
H          -0.78064763826915    1.69668950372768    1.02874136479683
O           0.91576556538028   -1.41821182381882   -1.99334193399982
H           1.19912660538281   -1.53156831626062   -1.07840704884566
H           1.19715666956707   -0.52654539669162   -2.24098642816132
O          -0.37440249014818   -1.03691415354692    2.28359347395796
H          -0.63687951381694   -0.09384438903471    2.31891789665052
H          -1.12591599135808   -1.50441343735071    1.83259696199097
H           0.74187357092959   -1.04778742467095    1.38819460025233
N          -1.85626932759410   -0.81644798269914   -1.35850006310319
H          -2.55300476305108   -0.80252039397814   -2.09254643063628
H          -0.99501808795035   -1.19538229775897   -1.75433285012709
H          -1.65263353496356    0.14661053827056   -1.11128123208427
