    26
        -50.44140906  Gyration_radius:  2.52425735505 Dipole_moment: 5.040
 S           0.97790699186050   -1.83715288316318   -1.32489426144964
O           2.02563069826829   -1.08523314359837   -0.68646236681503
O           1.25395797218648   -3.17960959003301   -1.67448520058289
O          -0.27618398440995   -1.74952119829558   -0.38642976474173
O           0.47203147292611   -1.08745317739056   -2.57960863010310
H           0.06224014069559   -0.20903719923183   -2.33580611080377
H           0.10051950996253   -1.49857138603436    0.52666612852040
O           0.83926651958786   -1.09066602302109    1.79091638252904
H           1.70788554277047   -1.23469933314470    1.39668582380432
O          -2.49492111372585   -0.11910042666616   -0.44641136300948
H          -2.02184572053383   -0.95763875691422   -0.53952879078892
H          -2.42892394544493    0.09391645269522    0.49946099649723
O          -0.81525232967437    1.10856355633284   -2.04129988539846
H          -1.49490743013802    0.74926341698255   -1.40727601723176
H          -1.29047005158900    1.31452701951978   -2.84904636052172
O          -1.90231702973284   -0.00778106728410    2.24697034354182
H          -2.47627199132603   -0.20596926582081    2.98843479349788
H          -1.13463809952675   -0.58824313993312    2.31914755040790
O           0.62694510988817    1.48310075796002    2.04534619930250
H           1.01844061013473    1.71628684914262    1.15509647312141
H          -0.31949575011541    1.63904600493805    1.98450972847093
H           0.80643756362817   -0.09613830130633    1.95740252651808
N           1.60395155590022    1.75396958031359   -0.40113219768410
H           1.93782274116440    0.80049726627614   -0.53830906026734
H           2.36349034043888    2.38224435086035   -0.62826291089834
H           0.85870066681818    1.90539964680886   -1.07168402593081
