    26
        -50.46317517  Gyration_radius:  2.47262709044 Dipole_moment: 5.494
 S          -0.30111656232665    1.02255983370118   -0.54720227337932
O          -0.34183356689224    2.21064681451106    0.25934363102661
O           1.07355119612391    0.97628879650936   -1.31773883531322
O          -0.32666998913588   -0.20743686995485    0.25961584184988
O          -1.31061550631774    0.96266096448279   -1.59593363232380
O          -0.51323278826103    0.32097000854620    2.87615649001489
H          -1.27370625519520    0.90428332335744    2.91732054790570
H          -0.40767417370318    0.09166712389382    1.93114051847133
O           1.37856046775925    2.19566163587006    2.28709081353699
H           0.91268922334663    1.51360485789266    2.80445828877197
H           0.73102659582607    2.43912943743695    1.59433574289192
O           1.07696624256142   -1.70228284746324   -1.70587596460840
H           1.12344142823874   -1.89713794209990   -0.76449184117134
H           1.20878947537022   -0.73685727736688   -1.75629736222353
O          -2.27410513221817   -1.98837315231053    0.36356309565659
H          -2.15788616508909   -2.56097035425625    1.12294830358192
H          -1.59609741090102   -1.28099976560943    0.44618315865210
O           2.85320592290551    1.03538398720272    0.51040296529791
H           3.56162813128021    1.64526072098492    0.29462214652055
H           2.36454775790743    1.44641832083242    1.28769905866430
H           1.78752115257098    1.02010984063497   -0.60404048031160
N          -1.53353510083694   -1.51144663396391   -2.16200345723406
H          -1.52860266739923   -0.43379387932343   -1.99674115351919
H          -0.51551914179183   -1.77806112377674   -2.12367289031205
H          -2.01567929890013   -1.92539733174106   -1.34170852784201
H          -1.97565385491966   -1.76188847799180   -3.03917419460233
