    26
        -50.46106750  Gyration_radius:  2.39319318764 Dipole_moment: 6.664
 S           1.18343356426854    0.34866394732869   -1.03207595526318
O           1.37171833704980   -0.96572820106585   -0.43927219765306
O           2.40235399607040    1.13931561233316   -1.06173093382029
O           0.71303499979595    0.14198019917350   -2.50901094421950
O           0.12851891150665    1.10257968138507   -0.34712446075951
H          -1.39539303281578    0.79538106261115   -0.34212178064568
H          -0.09342905620210   -0.42071331890036   -2.46570775374495
O          -2.36734688564252    0.56669906246720   -0.38954923252229
H          -2.82673843950868    1.38889990157373   -0.56550850977867
O          -0.70027211316790   -2.61399181463448    0.06028890671489
H           0.14390430930082   -2.15670504225300   -0.11049810540171
H          -1.20217203268715   -2.51089424317986   -0.75374265305823
O          -1.61166862885995   -1.15393120154911   -2.28043640321758
H          -2.02375811260788   -0.58576146000818   -1.58794290006788
H          -2.14756370460523   -1.07096383398639   -3.07139723284121
O           1.23739819842938   -0.27294825764813    2.10221534178905
H           1.64756884807644    1.06911382975554    1.77461205153109
H           1.41406093571456   -0.70435461822300    1.23843029573155
O          -1.35663114896852   -0.79791342312517    1.96792510286720
H           0.25615446711231   -0.38376103898368    2.21197019974227
H          -1.85203250320406   -0.22191951725753    1.37400799124869
H          -1.19508992243076   -1.60678613361091    1.43839321564955
N           2.00422240823925    2.03563712971474    1.33462850276954
H           2.29394602490204    1.76215634461596    0.33820394778318
H           2.76636076386336    2.45232977299230    1.85978210257298
H           1.20941979635504    2.66361556054897    1.25566142455382
