    26
        -50.46317530  Gyration_radius:  2.4728645358 Dipole_moment: 5.492
 S           1.08179616995288    0.51464425385832   -0.03402048578760
O           2.16683606108042   -0.22052744535097   -0.67014770746895
O           1.47242367551799    1.29595409754503    1.10642677049867
O           0.54815484128483    1.48367263562129   -1.15735169597815
O          -0.04455253942852   -0.38550053704992    0.25847101546135
O          -0.94405681063596   -0.37679986162270   -2.43651936024587
H          -0.40142829568625    0.39375129138948   -2.18376820409054
H          -1.53431792955237   -0.50504489535631   -1.68723115612716
O          -0.56168205529880    2.45906306725213    2.36419639995858
H           0.31933770598580    2.18518236903964    2.03673275816585
H          -0.93604132572592    1.63544061143939    2.72661653640913
O           0.01955131536705   -3.02475199898307    0.33065012659329
H          -0.00344845838154   -2.04789507625540    0.44079937558664
H          -0.76364868040105   -3.36230914432138    0.76745491134142
O          -0.82024451467444   -0.21906148008260    2.81393028164255
H           0.00081341572053   -0.35685977843351    3.29051728858966
H          -0.58793915360850   -0.27866978165315    1.86560287220944
O          -1.38112929795784    2.75127532146984   -0.06915596240061
H          -1.18107081968497    2.66770121610483    0.91311909723905
H          -1.34272941965349    3.68967236214109   -0.26494994333264
H          -0.20398932511342    2.00677715874916   -0.73116080001482
N           1.02723964511233   -2.09494950734699   -1.96607669636301
H           0.69038246507184   -2.75097131902063   -1.23618796356527
H           1.55698957890278   -2.56220642231543   -2.69316423889026
H           0.20359278718090   -1.55553663431822   -2.33965992180170
H           1.61916095462037   -1.34205050249823   -1.44512330762867
