    26
        -50.44624774  Gyration_radius:  2.59892193127 Dipole_moment: 6.981
 S          -0.89405327684589   -1.48835977136780    2.40231159200258
O          -1.87014799678507   -0.76168558435284    1.62450287065951
O          -1.37638906932544   -2.43623757187966    3.33361237189767
O           0.11152249010144   -2.14093626398627    1.41423059639093
O           0.00118597810528   -0.45910241813876    3.14535970703486
H           0.32797398640210    0.17476526720859    2.46036229353862
H          -0.15565806953252   -2.00239007602751    0.44280992093503
O           0.97037038006467    1.14510458084343    1.31898916436036
H           1.41339726474541    1.87354139473237    1.75766741162137
O          -2.33529962629009    0.20259801020001   -0.74102073773962
H          -3.26017393803718    0.08374367637692   -0.96134098715977
H          -2.23559150112852   -0.10660684173662    0.19048661801396
O          -0.31945766067631   -1.62557253876880   -1.04874386172338
H           0.53590967869573   -1.15910096295366   -1.10701063492287
H          -1.02385270784936   -0.95401897628858   -1.10282562412378
O           2.12790551340419   -0.59521687132315   -0.43443029856345
H           1.80908172447749    0.03645165849448    0.23900001606393
H           2.36783160920460   -1.39114854201843    0.04555084239779
O          -0.43935577455232    2.16379104404566   -0.55600960104843
H           0.10500815024393    1.92086736477735   -1.34414564096301
H          -1.24622518505680    1.62865435202113   -0.63172743198236
H           0.35512307624107    1.57127995508525    0.62742301848516
N           1.08686521551535    1.20351695591126   -2.59465581400879
H           1.74747895403829    0.61043844281485   -2.10249839869178
H           1.61627438981858    1.88264264000662   -3.12618368373883
H           0.58027641506149    0.62298108636975   -3.25171372878887
