    26
        -50.44679015  Gyration_radius:  2.59502070082 Dipole_moment: 7.520
 S           1.05855630643931    0.87420465803450   -0.41108004869656
O           0.98053882955396    0.20890016760874   -1.68539428109718
O          -0.03381039921469    1.72283127779326   -0.06705851096302
O           1.25805698654674   -0.19942023897151    0.69675746647086
O           2.37589144351216    1.64941363367134   -0.30725153264634
H           3.07213576614070    1.07147523271724   -0.79969265743077
H           0.49048429632890   -0.87802375765995    0.71001399945730
O          -0.65663880393521   -1.85650362564148    0.77797740747156
H          -0.45028660260136   -2.59207999623532    1.35768471263059
O          -3.46954111188922    0.46660489937617   -0.33387975543484
H          -2.75916313594301    0.12854857130339   -0.91996873610859
H          -4.29372991510400    0.13964427493875   -0.69718669616305
O          -1.54323281139181   -0.84243974157812   -1.70607980891443
H          -1.33031914738546   -1.46896925097566   -1.00299931592630
H          -0.71375524341552   -0.37572379446458   -1.88891015208821
O          -0.54238379303753    1.42786951867739    2.55307079724795
H           0.31411512010240    1.06127137674916    2.78124979577602
H          -0.46660024812904    1.71955835469419    1.62572350841042
O          -2.39562072124149   -0.44365647716755    1.94749873886425
H          -2.89534894948615   -0.04437383445650    1.20098476080459
H          -1.39742730169642   -1.31477737136757    1.26093471932896
H          -1.85318760897373    0.28613145869414    2.31174034124912
N           3.76949213099558    0.00374830799013   -1.68355303409685
H           4.38888996948069    0.33112307422684   -2.41270193769326
H           2.89076066042485   -0.29749139949016   -2.09765033571501
H           4.20212428387582   -0.77786533838417   -1.21022942477909
