    26
        -50.45903946  Gyration_radius:  2.48469693939 Dipole_moment: 3.818
 S           0.90443578989368   -0.74130201344223   -1.45997360990100
O           0.56115302258325    0.66640599508059   -1.34431827485000
O           1.77649544545057   -1.17363195401943   -0.37626804905665
O          -0.24253162644528   -1.60741875157304   -1.63866690127707
O           1.75246744519821   -0.85090248621063   -2.79536590837834
H           1.74386303384830   -1.78302452858952   -2.98995639724122
H          -0.87908146354862   -2.00889113468161    0.30482089894289
O          -0.37183781649014   -1.73603591119891    1.07797128312281
H           0.52639890647121   -1.62243280886164    0.71819414948942
O          -3.21029013476071    0.80130194730470    0.10775957910141
H          -4.00708781993800    0.27091824071451    0.13680368285119
H          -2.80948453198985    0.65147633974758   -0.78218388446308
O          -2.00410195386859    0.29814635931469   -2.21519361720229
H          -1.50645189401753   -0.52952577377684   -2.07364527410899
H          -1.31367638567021    0.96932968756364   -2.24825803668000
O           0.61202651576529    1.86666902787744    0.89740353928054
H           0.58975666960493    1.49901373330209   -0.04461863884069
H           1.46091707822685    1.38923555201537    1.32669271526935
O          -1.27576389869480    0.62303404458415    1.90859593050961
H          -0.24452253423550    1.40819461671648    1.38186517927265
H          -2.05809468893125    0.76304921717787    1.32333116827270
H          -0.98347631845408   -0.30352251615955    1.73497106557576
N           2.56902012256052    0.48455232604932    1.73301463109873
H           3.50808031276116    0.85961646984550    1.72144696973643
H           2.48216875651859   -0.20581611994471    0.98046490694784
H           2.41961799824227    0.01156043120815    2.61511287246407
