    26
        -50.44995610  Gyration_radius:  2.54491954297 Dipole_moment: 4.069
 S          -1.22514857535214    1.61353550878365   -0.82196663231467
O          -1.10324145012305    0.89093951121510    0.42556522529817
O          -2.50981482384898    1.65912340874602   -1.41342308345135
O          -0.70892279786720    3.05105946090668   -0.59129018204365
O          -0.22669646229163    1.01623602719161   -1.84248481231340
H           0.53006858133919    0.47842737736753   -1.43994493837206
H           0.08961921723856    3.03546919277844    0.01307132018667
O           1.67515926486685   -0.45333660723525   -0.96184258531504
H           2.27871678657854   -0.58344371667955   -1.69504494949754
O           1.16108784820127    0.31100559554142    1.60058554402295
H           1.63059981541851    0.02288058750600    0.80085890776507
H           0.23647399041501    0.44889678216487    1.29567381926111
O           0.52181210688030   -2.34175328828185    2.10397293177900
H           0.73098112236630   -1.38994920603869    2.12573002160931
H           1.17546775638685   -2.78305968781869    2.64764343935765
O           1.28147845504721    2.93828120956468    1.07526363764813
H           1.35575942125945    2.00500061149306    1.38511714277677
H           1.04881464042208    3.46494435569418    1.84257995686551
O           0.29985443882431   -2.55389218307947   -0.62321861509097
H          -0.60489023869355   -2.23405469601688   -0.86752947906682
H           1.15648453470242   -1.33881473294807   -0.85385870489427
H           0.29111536447622   -2.64792920671906    0.34790769594558
N          -2.05712372171017   -1.33970650957086   -1.13539445424326
H          -2.04604755680585   -0.74927582048808   -1.95887766229800
H          -2.02979480416965   -0.70600351835443   -0.34307792326335
H          -2.95181290368741   -1.81458046551326   -1.11601561005882
