    26
        -50.44402447  Gyration_radius:  2.71184557054 Dipole_moment: 2.659
 S           1.73821584946565    0.15489789514320    1.00022940788551
O           0.60878930825352    0.25570593869433    1.89443159354883
O           1.79973030491363   -1.00795050398164    0.18814800583677
O           1.76866768156466    1.44239179469445    0.13345635375248
O           3.04440260639574    0.30921375033538    1.80467732158732
H           2.87477379458905    1.07981171431865    2.40204003466737
H           0.98750972204546    1.44296496324176   -0.51887246577691
O          -0.31958315056582    1.46130159773741   -1.31248158909975
H          -0.51220548005522    2.32892232736815   -1.67444078594847
O          -3.05828943188913   -1.05281800979648   -0.24643571644203
H          -3.96241280902725   -0.93645878188051   -0.54098009026440
H          -2.50459930692362   -1.09713548762159   -1.06958508682056
O          -1.48118217502440   -0.96302578569767   -2.36753451304259
H          -0.98077004762765   -0.15298377693715   -2.20919494656819
H          -0.84598337058370   -1.69778095083365   -2.18422196719397
O           1.89908746680038    2.27796158084177    3.06044081134687
H           1.14266568090439    1.68183804188132    2.92344041516627
H           1.78017771042572    3.02033647033565    2.46265512872701
O          -1.74833115159017    1.02847841820529    0.74997401328028
H          -1.04723810007991    0.67896975468532    1.32351773596176
H          -0.96385091866686    1.32237844401988   -0.52981052458687
H          -2.30423109592507    0.24930285350388    0.50200957637054
N           0.32790537826443   -2.81151224038503   -1.58515866843302
H           0.96217184149538   -3.27011733778368   -2.22734470322523
H          -0.09126297431216   -3.52671027798423   -1.00359276521854
H           0.88584266668473   -2.21798238223363   -0.97536655479707
