    26
        -50.45315584  Gyration_radius:  2.46427277689 Dipole_moment: 6.332
 S           1.29670498688663   -1.53782273625569    0.30324023668234
O           1.95988156282368   -0.28191565415488   -0.09395892595783
O           1.54508787089309   -1.92167572228562    1.65780035346638
O          -0.26856789642746   -1.19282286176559    0.19975563582246
O           1.48450985810406   -2.55224693026443   -0.72517998906675
H           1.40911662445778   -1.73522536307981   -2.02296686206233
H          -0.46865058693189   -0.77659042710237    1.08807498633875
O          -0.31043442874334   -0.14175448431145    2.54769915546696
H           0.36190764191496   -0.81163395315343    2.74485050933697
O          -1.20425255609535   -0.15366221458848   -2.07415160983458
H          -0.97682054814977   -0.55889978525364   -1.20867254323622
H          -2.09872004880487   -0.43270766609068   -2.27715948896763
O          -1.04637844700075    2.15228368527432   -0.33288330421587
H          -1.71564140903523    1.80834814908067    0.28740978633404
H          -1.06075458638443    1.55405461853967   -1.08889898720680
O          -2.65989674535421    0.98959193425194    1.57754648895277
H          -1.97292515741094    0.50014794402300    2.05592138168040
H          -3.02222642654611    1.62191081337512    2.20062437160900
O           1.02822446859311    1.76153806983196    1.39917349123132
H           1.56270904275067    1.12743496794835    0.88867695792595
H           0.36208862479657    2.10092057829992    0.76813531929919
H           0.20776731836010    0.67516426268462    2.28137912363795
N           1.40126359888943   -0.77093087973508   -2.50817677313717
H           0.42653465809376   -0.48367716868593   -2.69736988855169
H           2.00404191117161   -0.70081309098031   -3.32031884182466
H           1.75543067907581   -0.23901608569956   -1.65055059373219
