    26
        -50.46254519  Gyration_radius:  2.67491568014 Dipole_moment: 2.245
 S          -1.81817674717103   -1.59344905382013   -1.16560695075861
O          -2.34831570015960   -0.23532071345544   -1.28626233687563
O          -0.48224474129550   -1.70487991585329   -1.70896916489114
O          -1.94696208277876   -2.10409110596386    0.18627544984553
O          -2.74949071991947   -2.50486003773594   -2.07045883562769
H          -3.55429596832140   -2.49814969224061   -1.56296860841154
H          -0.80505805425014   -1.51472691534680    1.11518200261507
O          -0.11050984742730   -1.15838378044889    1.73084121062003
H          -0.11729713651015   -1.74632570705833    2.48825412490791
O           1.25950356059467    0.17274317016381   -1.91975555311391
H           0.60596577411170   -0.57806511604473   -1.86451318184493
H           1.70646548918526    0.07136150616588   -2.76099129325453
O           2.31124825917494   -0.46754929440662    0.56976080651884
H           1.50553804045101   -0.84592570408618    0.96171622463260
H           2.08862622826771   -0.29962273508898   -0.35942507202143
O           2.36308323960395    1.91441607206114    1.72256985493792
H           2.95147640475633    1.89077841325375    2.47743391568766
H           2.46437991317605    1.04096556255635    1.26614998336019
O          -0.27963743527225    1.55865496657978    1.85495203110268
H          -0.54489480950677    1.69090446608005    0.35334334606687
H          -0.29804265550072    0.58752953603630    1.95643689371080
H           0.66877126961468    1.81112592691740    1.92234417130952
N          -0.67896999345416    1.66570047384739   -0.71853591515846
H          -1.41998806549892    0.92791839808945   -0.94285392970852
H           0.19239185186622    1.34594916949523   -1.17541086184728
H          -0.96356608372828    2.57330210025319   -1.06950831175494
