    26
        -50.46542424  Gyration_radius:  2.42135129951 Dipole_moment: 4.621
 S          -1.11603408782072   -0.72550962492979   -1.53622542320389
O          -1.73991410172610    0.41002855611266   -0.89995627523022
O          -1.81262930742481   -1.97365566310447   -1.36964263988040
O          -1.11765156307996   -0.43445040929293   -3.10516460366228
O           0.30887771337553   -0.81915279900248   -1.16457010203423
H           0.44595903077344    0.82595401322471   -1.83037158658015
H          -1.54447384179466   -1.20461291819594   -3.46656231718440
O           0.41137879082734    1.78102743594048   -1.99065807579977
H          -0.51924160401552    1.95997375557807   -2.14787857382753
O          -0.27444536501194   -2.62597755946228    0.70609635909310
H           0.15838282194384   -2.13318585255546   -0.01630339243187
H          -1.14317698198043   -2.80659802714499    0.32159651510876
O          -1.17970147541663    1.37104761803590    1.49282601933431
H          -1.54000107162660    1.04816432865441    0.63776823311822
H          -0.46092772414809    0.23959940892937    2.05512294516268
O           2.17847673802997   -0.02039919088531    0.57300408213007
H           3.03037591637895   -0.27162893674747    0.21374240462113
H           1.51505303870525   -0.27019031491998   -0.10676653686618
O           0.99230642603989    2.54387055751833    0.54682882882461
H           1.63464357752723    1.83847237112858    0.70123263908669
H           0.79770294547788    2.48423958248531   -0.41100223067771
H          -0.44376837343587    1.98097546446287    1.22607899204318
N           0.19552616821265   -0.60438898394880    2.35974664791839
H           0.20562913618767   -0.73601227929459    3.36453053936048
H           1.13421409122300   -0.38317275825170    1.99435435234485
H          -0.11656089726215   -1.47441776423931    1.85217319918053
