    26
        -50.44647005  Gyration_radius:  2.48306111049 Dipole_moment: 5.866
 S          -1.45459803478814    1.57301835928874    1.02918961162247
O          -1.79168153018333    1.02418672672345   -0.26117993743045
O          -2.47151947523867    2.22345258493017    1.76599142169937
O          -0.85987459767540    0.40469773629942    1.89415567202225
O          -0.23104624243230    2.49837823337639    0.86938408801377
H           0.23858170641152    2.17273719818528    0.03008446056450
H          -0.88210532656624   -0.46959990073586    1.40875474731109
O          -0.85872096718327   -1.90383966562061    0.71478464446841
H          -1.34733158127124   -2.54032882282186    1.23880343009493
O           1.55897620530266   -0.93373890912302   -0.28254245798101
H           0.81428175630281   -1.41859640887671    0.10318837939778
H           1.96697652259510   -0.45752482315863    0.48212904528108
O           0.31379397877056   -1.13783245665233   -2.78384180113948
H           0.91890699461917   -1.16033051221210   -2.02601485668860
H           0.70989536262340   -1.66999428831087   -3.47437824983123
O           0.77102116115135    1.48490179591636   -1.23149978904357
H          -0.04883591155950    1.28911072316498   -1.69834133871499
H           1.13479848641757    0.61425080817935   -0.95535528964821
O          -2.08522678841384   -1.35547790450437   -1.47049160988886
H          -2.23492176189956   -0.43654638204217   -1.18834695286027
H          -1.34907457951383   -1.31281954285782   -2.10782101941530
H          -1.37936524106800   -1.77381621594116   -0.14563733846858
N           2.16255503174834    0.63249387745380    1.82181371557262
H           1.21689807435009    0.68825505062099    2.18904831290290
H           2.40479557183315    1.55810421809531    1.48868297375026
H           2.78282119566646    0.40685854061623    2.58944013839429
