    26
        -50.44096517  Gyration_radius:  2.57281355362 Dipole_moment: 5.621
 S          -0.64189752012338   -1.45222463085746   -1.58663574667843
O          -1.32354416807137   -1.37915706453854   -0.32809336095532
O          -0.30323035127141   -0.22073498947337   -2.21420448735897
O           0.57517176400106   -2.37617707985924   -1.46910685856822
O          -1.54168106623149   -2.26896739712650   -2.57530157721885
H          -1.86549295535914   -3.02217430642015   -2.08658293164417
H           1.25798516716635   -1.95627161540995   -0.81464778095626
O           2.10312491732665   -1.32209355706562    0.21424590609826
H           2.78898686165541   -1.92193423542767    0.51602578154961
O           1.74863987514144    1.24111876267229   -0.97383947098571
H           1.07227586052629    0.90464926087310   -1.57610648603102
H           2.10724602253002    0.46823258771138   -0.52243985716218
O           0.11392359522519    1.19872064489927    2.88629812874625
H           0.80646941928642    1.53676064489725    3.45473892742446
H           0.09302363176858    1.80300694712360    2.09151337124860
O           0.14282978201640    2.68565522683240    0.73626050145075
H          -0.70410668882059    2.45407478680287    0.30169957570815
H           0.82859955219958    2.32292734594071    0.14635664808176
O           0.25519846405699   -1.23948094550520    1.92169101392264
H           0.18448456249980   -0.34478196169215    2.34854859637882
H          -0.49168420786111   -1.29692890406814    1.30635325898307
H           1.41134906354456   -1.25659395734938    0.98154484304372
N          -2.00476306230706    1.55046753189005   -0.55443327195364
H          -2.85126940055133    1.96795740657856   -0.91997349570583
H          -2.26948329892088    0.77903630828633    0.04654127333186
H          -1.49215579937229    1.14491321032123   -1.33045250081564
