    26
        -50.44506460  Gyration_radius:  2.49528449877 Dipole_moment: 5.634
 S           0.81532744494436   -1.50359162392514    1.65683380350131
O           0.00464280887609   -0.55258207212706    2.36335462312159
O           1.33194527372418   -2.61930145203156    2.35704837435657
O           0.00304198806795   -1.99241105477395    0.40875802032394
O           1.99698685737051   -0.75499071556512    0.97704857732745
H           1.75499283838999    0.20008331177282    0.80071137835038
H          -0.95164697797241   -1.69321781158793    0.48410103305389
O           1.45240501563567    1.75142017108889    0.57119424190014
H           2.08023532752624    2.26957179960116    1.07733020893536
O          -2.44536285679091   -1.22105459951937    0.35279203762757
H          -2.38749138591059   -0.31955451799327   -0.03110421731483
H          -2.91445702632280   -1.76595183101185   -0.28232344641940
O           0.23922355240456    1.26027034089083   -1.90017571365972
H           0.61535751885259    0.36443556178693   -2.08135237024164
H           0.79289467183667    1.61939549459943   -1.19319068923744
O          -2.08255868775688    1.18862265439308   -0.74709216625421
H          -2.66601654667709    1.77600183460311   -1.22845314907435
H          -1.20517471771244    1.19928058144895   -1.23614293170369
O          -0.87714035374893    1.86940129084065    1.65563056549073
H           0.55134544241408    1.88747531741073    1.01142923753118
H          -1.47212172588295    1.68546690742532    0.90879111448311
H          -0.74658687391907    1.01620649574975    2.10992208903998
N           1.40376950014665   -1.17510518485908   -2.06771714607163
H           0.94356162562694   -1.65923551549240   -1.30208054279036
H           2.36927723992134   -1.04562896415808   -1.78974460889174
H           1.39355003696394   -1.78500640856861   -2.87556830338948
