    26
        -50.45476310  Gyration_radius:  2.47350850197 Dipole_moment: 6.112
 S          -0.25786793998730    1.75383244503705   -1.52659406278078
O          -0.38487252115849    1.79793053780290   -0.04453679051561
O          -0.26202797269472    3.03959410152666   -2.12988240480293
O           0.92635920945532    0.93182966756113   -1.85961059736544
O          -1.51129725520042    0.96576108350639   -2.02662297735578
H          -1.53299856793375    0.09235278564350   -1.57672051576000
H           1.92498839972010    0.96451317025855   -0.60509945035409
O          -1.71309917216883   -1.42000699145732   -0.87130166338571
H          -2.60901142285320   -1.73892901249481   -0.98700310225096
O          -1.61528901202430    1.14435206751754    2.20275945562185
H          -2.50166466149432    1.50711362466108    2.22738982766587
H          -1.21238249641629    1.46732007487421    1.37049026716390
O           0.94879728118226   -1.68412863172410   -1.44467626506679
H           0.00033237836024   -1.87977171131829   -1.43102768691129
H           0.99772215328695   -0.75054149741873   -1.74813404274934
O           1.64530368950070   -1.55681492212687    1.04571075647670
H           2.22028490118194   -2.28999394231144    1.26683234652863
H           1.38985621584065   -1.68096036815700    0.07788796697056
O          -1.10570683863784   -1.43988231822917    1.65275293597978
H          -1.52776288474769   -1.43813712155828    0.11554578836100
H          -0.13854612056385   -1.50185346663198    1.64450087739925
H          -1.31721345934687   -0.54175041968894    1.98222815915377
N           1.96555388922099    1.04764898924372    0.45196454201727
H           2.69910762551092    1.65768035963907    0.79235280422531
H           1.99630680266494    0.09410463717196    0.86915348482679
H           0.97512776932854    1.45873685868357    0.55164037691324
