    26
        -50.44631977  Gyration_radius:  2.51077332818 Dipole_moment: 2.833
 S           1.63575177302795    1.03515044382579   -0.29708062006248
O           0.75126815854509    0.42286604270512   -1.25322854095746
O           2.94948727854719    1.34663841419263   -0.71134248476505
O           0.95734600923885    2.30282772624941    0.26592071460997
O           1.70301835377332    0.09118171458277    0.94953172114085
H           0.86253300572233   -0.46657146715491    0.97673731810531
H           0.06056618392051    2.02603275074635    0.63767909756052
O          -0.50009160889718   -1.18346757178393    1.16902115935333
H          -0.47239287100074   -1.91026207083015    1.79299074420936
O          -1.96252113097239    0.69216617123333   -1.35462675879096
H          -0.99555762309425    0.67817642711608   -1.45966792383681
H          -2.14067026949962    1.22755033008295   -0.57674928125726
O          -1.15032613826759    1.42832102718998    1.43386363768690
H          -1.12457477221141    0.45482396536429    1.35232662087482
H          -0.75166424774032    1.61284056126224    2.30388583342505
O           0.89296236294722    1.63233836467593    3.21095736447963
H           1.32717470720314    2.48760660167274    3.20008760236928
H           1.41349443368936    1.05377038999556    2.63675314550088
O          -1.72011798811081   -1.96708255310484   -0.89458712313660
H          -2.06229267456537   -1.09468529091571   -1.17560610648954
H          -1.01266912806007   -2.18067180521550   -1.55165407984026
H          -0.98224387361381   -1.54235911354006    0.32266472929911
N           0.36557223819750   -2.12940628950762   -2.59879030158937
H           0.13565236381461   -2.05112671747345   -3.58157751072484
H           1.15541300635993   -2.75690534699548   -2.51654976014586
H           0.66488245097072   -1.20975269438549   -2.28095921705232
