    26
        -50.46049242  Gyration_radius:  2.43457944052 Dipole_moment: 2.644
 S           0.82873759212021   -0.28074311058864   -1.64024523980410
O           1.98664794655709    0.40427974622915   -2.15962097722802
O           1.12240996485212   -1.13435472449940   -0.49851318278715
O          -0.31301109788610    0.57847507627829   -1.38320503504415
O           0.37207948706478   -1.26553738332158   -2.81601622113700
H           1.10842144739320   -1.20960384082927   -3.41653404906125
H          -1.02525863485139    1.30477028098292   -0.11886967804127
O          -1.46193929887062    1.70724595777951    0.67044944470037
H          -1.93021527674301    2.47791267615654    0.34723058672652
O          -2.00315532057046   -0.82331672508997    1.62051822987109
H          -2.05722000291728   -1.29175966742151    0.73936711247192
H          -2.06900342314195    0.12410725389087    1.41142058362961
O           2.51684572436413    1.77113411263295    0.02743354032050
H           2.29829497697078    1.32791891661680   -0.81892478955089
H           3.44748643812517    1.59688822772767    0.18163127070050
O           0.47243764956782   -0.91796767916396    1.93586540285733
H           0.77487352691412   -1.07328556563675    0.97501021823316
H          -0.59368301371875   -0.95499462741001    1.89924800357325
O           0.84840595671227    1.55319421974966    2.09399324434011
H           1.51079032113874    1.71813141906794    1.38660968109180
H          -0.00857204849422    1.82376994431163    1.71424415901235
H           0.69578149560889    0.09728133880777    2.11786218353571
N          -1.73976526032860   -1.83697850983046   -0.81119889442473
H          -1.33468978223094   -0.99797757775938   -1.21891418678593
H          -2.45300778158087   -2.17656951516346   -1.44426904803556
H          -0.99369158604873   -2.52202023351720   -0.79457236917028
