    26
        -50.45036101  Gyration_radius:  2.51004271747 Dipole_moment: 3.245
 S           1.72941911271217    0.85708866912595   -0.82930492586637
O           1.05094804402139    1.03382378377344    0.43752091409901
O           3.12284072598265    0.61337471337131   -0.76838872144781
O           1.05692153493548   -0.25352034201156   -1.62289769234554
O           1.46617237374156    2.15369297516756   -1.67256938179089
H           0.58256583870050    2.49511613616139   -1.48909081538550
H          -0.00521634595249   -0.15910714719699   -1.68420231373092
O          -2.02838730886051   -1.27138674160352    0.57868778133494
H          -2.41872163564106   -2.14220619531763    0.65774586410036
O          -1.40089085200591    0.04926826337577   -1.66186492096776
H          -1.46198636659485    0.97523788594219   -1.32298321914174
H          -1.72799094800839   -0.51783670742735   -0.92775070358189
O          -2.77396195155711    1.26096512825088    1.42988414956639
H          -2.64962842250024    0.33696370579579    1.15056549096688
H          -2.46555811561428    1.31030684889185    2.33624468673805
O          -1.07615439452829    2.33803429916338   -0.37607851235393
H          -1.84613726117902    2.24446628260399    0.21992238374651
H          -0.33539273768525    1.96401852046256    0.13961626102266
O           0.31429118931324   -1.25250149263275    1.68450012226722
H          -1.13079981487915   -1.31650459786140    1.02804489310933
H           1.01293268520625   -1.78282314008135    1.23727348705376
H           0.57438149219015   -0.33997263317068    1.48067868437760
N           2.39590801736509   -2.13700895019175    0.18407501843038
H           3.13519654074418   -2.75656256371660    0.49519869736764
H           2.81136478732681   -1.22652860555785    0.00767923526130
H           2.06788380283595   -2.47639809520693   -0.71250648280989
