    26
        -50.45036098  Gyration_radius:  2.50985270582 Dipole_moment: 3.238
 S           1.76321513260323   -0.02664738072906   -1.14041965439828
O           0.47652273960531   -0.67156556625380   -1.29842327994878
O           2.26262137811245    0.66660625324331   -2.26939483169175
O           1.72329099063847    0.91573306400298    0.05377450904401
O           2.78464793080445   -1.14192165719600   -0.72332229329342
H           2.35122005070465   -1.79638578561441   -0.16224870811845
H           1.32358215187953    0.47375844962456    0.94019424242079
O          -1.83803098694739    0.35152121440666    1.60162056278353
H          -2.38380705167982    0.99876337905107    2.04895170778605
O           0.74333186541579   -0.20471591584696    2.03342085577606
H          -0.20410143354884    0.05898174826065    2.01846490516133
H           0.75799192919263   -1.14182727265665    1.72088427226877
O           0.62871326343830   -2.44421690218673    0.63089821044158
H          -0.24319174264863   -2.74142414956555    0.96008703740884
H           0.41350313978309   -1.94606312403326   -0.18159516855194
O          -1.99910722316661   -2.39612255242139    1.26014916848038
H          -2.58348252928258   -2.51061780216725    0.50886138927134
H          -2.03298407411959   -1.45070606965028    1.48898188923458
O          -1.67217188629676    0.92954761788361   -0.91827033501594
H          -1.07084380437486    0.22170489108594   -1.19979831123077
H          -1.81341231684670    0.61641505988337    0.63269187491580
H          -1.17105715938941    1.74512808968644   -1.14855249622967
N           0.19957488046688    2.75392292873286   -1.64952494606461
H           0.84723874446345    2.09659148478498   -2.07513829852244
H           0.66963895058875    3.12414973263073   -0.83182328976060
H           0.06709708060658    3.51939026482487   -2.30046901222003
