    26
        -50.46233081  Gyration_radius:  2.42593385277 Dipole_moment: 5.827
 S          -0.93559325739726    0.50985687457988    1.72000912774809
O          -1.92519391073435    1.54982557296112    1.75394920280888
O          -0.63894663000059   -0.15685701604966    2.95285923768206
O          -1.61452756873603   -0.67639660319724    0.79766793248070
O           0.25728421503946    0.86801211318410    0.95370748478066
H           0.89028673083995   -0.61615491908274    1.43938019305784
H          -2.15012050986291   -1.09889983041782    1.46217742537812
O           1.36081077141580   -1.46959731310346    1.53608315997437
H           1.14756701863312   -1.74941482425690    2.42959993023414
O          -2.87294489909091    1.49572534553294   -0.72836934071572
H          -2.60758497996447    1.65637604183082    0.20247330935238
H          -3.23045187902595    0.60636134257993   -0.74650006879697
O           0.09838148417705   -2.20404804391328   -0.74814863533253
H          -0.69802820465286   -1.76895112741003   -0.40876776507945
H           0.69408455478778   -2.21764534149678    0.02602472888711
O           2.83249758971079    0.38652233284546   -0.00482191702142
H           2.14367680291214    0.93620342637988    0.39721494957117
H           2.83797962163354   -0.41518103176500    0.53489055003615
O          -0.31843144936190    1.81043075520632   -1.46006398616929
H          -1.29689816484546    1.78753056392925   -1.46189562143244
H          -0.09402867553705    1.67787402199055   -0.51715715508329
H           0.53909006517665    0.62190113193836   -1.97817749821625
N           1.23248628044279   -0.19304879310308   -2.06140940548691
H           2.01407691192330    0.03611570624654   -1.39112742287359
H           1.56830879538642   -0.31045712451020   -3.01017204755457
H           0.76621926715252   -1.06608327080769   -1.68942635830658
