    26
        -50.44202434  Gyration_radius:  2.61675715133 Dipole_moment: 4.650
 S          -2.28258918168087    0.22093650691584    1.55649352500494
O          -1.24797459709223   -0.77855038491365    1.39768224921331
O          -2.84895612046236    0.36583642701650    2.84278864367911
O          -1.68858267974870    1.57632107753078    1.05544568831683
O          -3.38601173355906   -0.02176982485643    0.50305632711607
H          -2.88631530679011   -0.22208175116821   -0.33209773236403
H          -0.68806823037473    1.62194848516345    1.14528561708043
O           0.88274032444229    1.72443212628985    1.11053712452164
H           1.21733451323605    2.31462454952603    1.78754313752707
O           0.02330084245678    1.72123642932635   -1.49504437041015
H          -0.52470883528165    2.50748102816540   -1.52872403413345
H           0.49661079937484    1.75595243067596   -0.64575591531256
O           0.96340188327275   -0.75949738058410   -2.69017790128257
H           0.92741601752861    0.19595454559155   -2.57025551883048
H           0.05526349414326   -1.06624578988910   -2.58389914373640
O          -1.52381987120463   -0.52123072417772   -1.23219708900879
H          -1.15181488402648   -0.89141259714004   -0.41396890969608
H          -1.04690682449646    0.32135426763828   -1.38065548317465
O           1.43731096838656   -0.64818985430170    1.78050304045490
H           1.18425533260010    0.77720987887537    1.38042099110567
H           0.51235385293891   -0.93555077928534    1.83657147322054
H           1.82159948410620   -1.12842344946987    0.99292106868607
N           2.35139127658215   -1.90180596236104   -0.39894749558228
H           2.11708667545232   -2.88654364089549   -0.37174681302295
H           3.35597110791564   -1.83110037226508   -0.50243387120118
H           1.92971168227876   -1.51088527141236   -1.24334458817589
