    26
        -50.46772986  Gyration_radius:  2.42897649456 Dipole_moment: 6.706
 S          -1.11126617739794    0.29404501623091   -1.07551934970128
O          -0.27397967582780   -0.14133925701965   -2.16418931340263
O          -1.60240717356997   -0.78242406717359   -0.22526730427772
O          -0.44068955286845    1.31987520938937   -0.25419459659587
O          -2.39339093270617    0.98087792650454   -1.65913115996220
H          -2.03103017104312    1.68442953544686   -2.22976381287017
H           1.09288936087930    0.92383756851734    0.19521369852140
O           1.98790986595492    0.65848462055385    0.51259209735424
H           2.56778143784480    1.40662217673839    0.36348203737813
O           0.21561137598944   -2.68365543792947    0.67805175275929
H           0.89325171540652   -2.53717197118579   -0.01803818527072
H          -0.57795524148144   -2.25227502656250    0.32834991213789
O           1.80574621233368   -1.59692853827818   -1.18169465366796
H           1.09354402662497   -1.18802167868318   -1.70309085967622
H           2.15966963421333   -0.88406378731307   -0.63221410444828
O          -0.50883260670400    2.51603569544484   -2.71673549504925
H          -0.13346406775635    1.70393460541349   -3.08126774601883
H          -0.24702726919378    2.51418041230797   -1.78614651254365
O           0.99596727369475   -0.98121136116545    2.48759681599744
H          -0.26233120357377   -0.25025393335804    2.40180423889536
H           0.76473220917288   -1.76911808349743    1.91331105849896
H           1.59880516970359   -0.45085624123989    1.94001382620294
N          -1.19935321126067    0.27011404474544    2.10048374748665
H          -0.96004970928184    1.18912184982011    1.72039474613231
H          -1.89212095293574    0.31875865395328    2.83934459560763
H          -1.54201034622333   -0.26299793164690    1.24661457651432
