    26
        -50.44959458  Gyration_radius:  2.45150971706 Dipole_moment: 6.613
 S           1.17231090089234   -0.62360790738651    1.20272727812172
O           0.65608985476467    0.58937979369411    0.57776477253264
O           0.67458443962958   -0.87534916143701    2.51931883292790
O           0.73530281029120   -1.80795889502966    0.24318333421471
O           2.64540322823707   -0.64176174233773    1.09486219085918
H           2.97658274940717    0.17527728899278    0.07845593337309
H          -0.25484715300807   -1.85389005956123    0.26268650106228
O          -1.87117616039742   -1.75935849847610    0.05827543481457
H          -2.29896599364045   -2.52949398559016   -0.31938087673634
O          -1.80944958756211    0.12508445219759    2.18278436873080
H          -0.90527219957284   -0.09964151923195    2.46103271236001
H          -2.08954577868168   -0.62232209695505    1.64013810903900
O           0.83295367668978    0.05312899848520   -1.90464896139845
H           0.61548503541434    0.33691853237102   -0.96850523658969
H           0.84737223419001   -0.90823975606034   -1.86024257286720
O          -2.19560074201646    2.02491523252596    0.31932444857627
H          -3.05914476894607    2.32056963290811    0.61271295424030
H          -1.86574013807114    1.43071718889889    1.03189019117938
O          -2.02734341539163    0.21387738704579   -1.62143704063460
H          -1.14853071423510    0.32870885703834   -2.00504963228983
H          -1.98261861681235   -1.01281112056121   -0.60834081406152
H          -2.12795572263098    0.96041056748182   -0.98250494499751
N           3.12415741772499    0.89415406926439   -0.82015014866678
H           4.05162305742579    0.82218462840956   -1.22440249823695
H           2.94089604619075    1.83319670742264   -0.47867968288796
H           2.36342953010320    0.62591141589796   -1.49181465266523
