    26
        -50.44959457  Gyration_radius:  2.45128436296 Dipole_moment: 6.617
 S          -0.09280236181160   -1.50022508693614   -0.97482254361244
O           0.82447122312875   -0.53161513590856   -0.38426461692357
O          -0.20438902622433   -2.73182523048652   -0.25691626890536
O          -1.50495374723649   -0.77910892183857   -0.99877022798539
O           0.21821757955062   -1.65825650976958   -2.41005574904374
H           0.88711048738233   -0.55445469761942   -2.79323737818132
H          -1.77938879289395   -0.63559779416318   -0.05710741587489
O          -2.10998758353240   -0.13528101857578    1.46125978997615
H          -3.01605677633065    0.12294898913492    1.63761482416884
O           1.47138308396816    0.54649767351548    2.55933793050496
H           1.60325798779526    0.48480500004672    3.50696432703794
H           1.11630721330058   -0.33046258289567    2.28633907232251
O          -0.10854719442645    1.68925345551225   -1.20776177102774
H          -1.01339617559150    1.42190605356777   -1.39820635565302
H           0.28520679523807    0.89714972688685   -0.73710423758501
O           0.09973343155885   -1.74382267777958    2.23605327347928
H           0.15080159505282   -2.22031161264295    1.38998626241332
H          -0.78061493130656   -1.34820870703234    2.23940148898016
O          -0.57935707326306    1.95595422832001    1.61981851555732
H          -1.54937908094735    0.69468887357441    1.56450014913326
H           0.22837966810463    1.53440866274160    2.00137321816985
H          -0.33426954878693    2.19629495144830    0.71713095281632
N           1.43971099150493    0.44535354896708   -2.99293590787406
H           1.51589689443940    0.65355444360549   -3.98268753866943
H           2.35491729318162    0.36721716659007   -2.55917126944107
H           0.87774805816545    1.15913721169023   -2.46673851378384
