    26
        -50.45782121  Gyration_radius:  2.49143354896 Dipole_moment: 8.378
 S           0.79156750868111    0.40458327525316   -1.43192794403285
O           1.10756613654557    0.69837338580407   -0.02157886852664
O           1.09654327316666    1.48229518807746   -2.31948932236097
O           1.36213396341011   -0.89253568798081   -1.80551370346859
O          -0.77898187877558    0.22224484697122   -1.49316379892081
H          -1.03769572363786   -0.47092278230925   -0.85110410926605
H           1.88808793622986   -1.53239744472149   -0.58808109473882
O          -1.62064625810098   -1.34938703116186    0.51227760262968
H          -2.57674037877881   -1.42335037840734    0.51072971406930
O           0.10166635872763   -3.25822510263373    1.26924534942209
H          -0.60642152808556   -2.60583868623328    1.07499231477300
H          -0.06615457886579   -4.01614744222751    0.70643270721060
O          -2.16074831460454    2.37994449915689   -0.18771145744972
H          -2.11395920306529    1.76344544597739   -0.92640879612978
H          -1.39225316223459    2.97338982162004   -0.32500078296001
O           0.28724612976098    3.40514637561199   -0.65672082414940
H           0.84813466499609    3.16643308311529    0.08490851597325
H           0.57845042268881    2.82559039872872   -1.38762561856688
O          -0.97645738676424    0.84140610575650    1.63059875001024
H          -0.12228304660886    0.90370520508176    1.15886272531074
H          -1.55312309804074    1.48166366238893    1.14766406106558
H          -1.40720790005871   -0.52467401405387    1.07787615469902
N           2.07987781623297   -1.63494016378691    0.48164951802037
H           1.40904768085993   -2.32837201352634    0.89451740844474
H           1.81689635357891   -0.65995563199644    0.74332077464757
H           3.04545421255171   -1.85147490443527    0.70125073423214
