    26
        -50.46772984  Gyration_radius:  2.42915926666 Dipole_moment: 6.705
 S          -0.61010940196727    0.04873077273595   -1.45023361795241
O          -1.57323736018293   -0.98159025760394   -1.15553398952167
O          -0.88700918869561    1.33119395900459   -0.81669854776874
O           0.76269239587382   -0.38645262394684   -1.12969435222278
O          -0.62210204140577    0.33478432282517   -2.99112267784666
H          -0.44768620446728   -0.54115384037680   -3.38366417274328
H           0.92101033991110   -1.04719368703309    0.36972789654192
O           1.02497437614470   -1.38747491417738    1.28935385296253
H           1.53191545819799   -2.19835128354482    1.22863148846282
O          -0.00518809005233   -2.24344377831091   -2.99099309735791
H          -0.80925090675962   -2.37452932871324   -2.47168758072894
H           0.64256725109025   -1.89791411534636   -2.36210715227422
O          -1.50796281188203    1.35923891414653    1.89428756937861
H          -1.50139456728687    1.53942713344512    0.94263467588862
H          -1.79650210196228    0.42221486645758    1.95760406778768
O          -1.78758774553517   -1.27995370539404    1.54196561279716
H          -0.85880913910575   -1.51415699120814    1.67629521403947
H          -1.90490739598722   -1.24570001700360    0.57694148671249
O           1.03360152181458    1.12599157134215    2.41129160152589
H           1.12011704149396    0.16555811417810    2.29091764679840
H           1.39142439897937    1.65899985760014    1.10232642935978
H           0.04564435289986    1.29232288538681    2.38916734555108
N           1.48157296327366    1.93042645497736    0.02642506788661
H           1.94172597960247    2.82028815964417   -0.13046265598075
H           0.48439507351631    1.90992889340346   -0.34201720823567
H           1.93010579249362    1.15880862751436   -0.47335489306044
