    26
        -50.44258122  Gyration_radius:  2.49005206266 Dipole_moment: 4.861
 S           0.71361159783788    0.24239227068706    2.26366159470989
O          -0.33697807506654    0.69656859853366    1.38538932054580
O           0.61968977033254    0.61973671061501    3.62350602456539
O           0.83088875356915   -1.30160288271208    2.10135680978752
O           2.07064345882749    0.72315236059254    1.69062383432511
H           2.16683069320444    0.25524020502702    0.81489954505815
H           0.00699784221779   -1.62934628538880    1.62940159329874
O          -0.09946026892269   -1.42734696682424   -1.61841742744217
H          -0.06859949735867   -1.95134413203865   -2.42017862495534
O          -1.16395137920196   -2.14524227063723    0.73808003921153
H          -1.28893756893254   -3.09583375880450    0.70685359319890
H          -0.90284562549908   -1.85322057653265   -0.16313299990827
O          -2.70046184465593    0.68723988170150    0.02766161699553
H          -1.89975715142163    0.56507029957419    0.56609549372921
H          -3.17617867995875    1.41667102198114    0.42721784809484
O           2.20710627835758   -0.71512788713576   -0.45786755742191
H           1.34622125458977   -0.90566964926708   -0.90019109477647
H           2.49898158409792   -1.54333652733519   -0.07022296771382
O          -1.21222896473977    0.77234621764805   -2.23353300438904
H          -0.52988632716283    1.40341826376142   -1.89988427377055
H          -0.55570334872077   -0.54791059698271   -1.88667479151186
H          -1.91442351145785    0.78384423515757   -1.55358811163574
N           0.67893194994642    2.17094651770947   -0.90297954066366
H           0.74287025076337    3.17515592813208   -0.79565951553186
H           1.61641023256063    1.81853519572557   -1.05325130294386
H           0.35022859683546    1.78566383673490   -0.01916610083472
