    26
        -50.45146370  Gyration_radius:  2.53176901596 Dipole_moment: 7.047
 S           1.16565078227011    1.29083932030991    1.01177268463950
O           0.04154589027423    1.29076824330390    0.09261359382438
O           0.86949663125107    1.76843556445608    2.31842454396433
O           1.72451252447919   -0.16032372875822    1.06911631638814
O           2.32706265275155    2.03833102187505    0.38505010364908
H           2.47684639332249    1.56345225305761   -0.56627988564954
H           1.00792810291826   -0.87118091889759    1.02245435116396
O          -0.02286417064039   -2.01116981147357    0.84875716931570
H           0.11826937267133   -2.67851769777794    1.52206399504181
O          -2.67237414314080   -0.91695474383799   -1.58053525529924
H          -1.72837479139139   -0.77436424049906   -1.77877919980963
H          -2.96753526300354   -1.64144845243996   -2.13333073834070
O           0.09236539076900   -0.67915786739804   -1.63418909252563
H           0.18048904403758   -1.41607924280983   -1.01522540755220
H          -0.02948332646684    0.10921197046772   -1.05983340840777
O          -1.90599528662955    1.37384390928203    1.96205178265879
H          -1.27584719002324    1.57475387470234    2.66144073839775
H          -1.40459687207371    1.52594280232508    1.14586388287106
O          -2.39843792794472   -1.14516570836224    1.14066177787085
H          -2.35294966332724   -0.24857503928140    1.53579039759330
H          -2.68688216151386   -1.01116643647244    0.21776831254926
H          -0.97969725368181   -1.67138423802806    0.98787279494253
N           2.59074536472936    0.81047137123707   -1.81929288201738
H           1.76623209887191    0.21485758775913   -1.92477029830751
H           3.41768046774369    0.22844578745794   -1.79737891766922
H           2.64621332372646    1.43613438980174   -2.61208736929499
