    26
        -50.45782110  Gyration_radius:  2.49151480816 Dipole_moment: 8.383
 S           0.79652414250210    0.15954590346410   -1.47664821126845
O           0.61664210539059    1.09849474894302   -0.35349675247657
O           0.73824579911796    0.78828537284296   -2.75862077577764
O           1.98138237094390   -0.66995505286981   -1.24137833827720
O          -0.44156758104418   -0.82410410716165   -1.41841202557861
H          -0.47387843608711   -1.23306460354531   -0.52884125983523
H           2.46757729724364   -0.40404568980292    0.12402553940989
O          -0.85312648248553   -1.67011550597326    1.09470003578831
H          -1.63220376436477   -2.22702194391568    1.14452425475905
O          -2.92989299927812    0.60034035670563   -1.19369189495443
H          -2.52611146590915    1.39821558064990   -1.59622535387079
H          -2.43531715254874   -0.13105546926570   -1.57885755971884
O          -1.22714805513619    2.47420248198479   -2.11713929519359
H          -0.79813110655414    2.87492543520108   -1.35762477606808
H          -0.54405244026130    1.90120086758218   -2.51711324002182
O           1.35520824971744   -1.91624259969758    2.59346183182439
H           0.48456462131848   -1.86922006706146    2.14126650555349
H           1.69564753559455   -2.79849349546168    2.43508657914398
O          -1.59095712860798    0.76326840439013    1.09904710749240
H          -2.27998777008049    0.75802692323881    0.39133568641740
H          -1.18747247904661   -0.71284359446018    1.22620703199916
H          -0.78879979555822    1.07271705870565    0.63353015973120
N           2.44367281399436    0.03763242479651    1.12158667897278
H           1.69822359432369    0.73996185357077    0.92191595830590
H           3.32044685530054    0.46559047015717    1.39644632076243
H           2.11051129165834   -0.67624575298936    1.81491581293610
