    26
        -50.44410014  Gyration_radius:  2.4952635505 Dipole_moment: 7.235
 S           1.00477184910033    2.09102715468400   -0.84426377557811
O           1.37361058709295    0.93715726234924   -0.06183588266533
O           2.04804851794933    2.81517783685789   -1.46545791274575
O          -0.05857629488622    1.62829418313205   -1.88781316364268
O           0.16231809571075    3.04259721733272    0.03953272477587
H          -0.56555171137742    2.48166523208997    0.40842540734006
H          -0.02030051750135    0.63774393299773   -2.01773243656796
O          -1.79834460081057   -1.02607161933680   -0.02181227784088
H          -2.60166536155113   -1.54211269626830    0.06043214118569
O          -1.78488123763621    1.49667975933247    0.86076830738220
H          -1.76413870617872    0.57356192787539    0.50767013250231
H          -2.59868238797642    1.89514927371537    0.54684989300265
O          -0.27346192433024   -0.92675507877819   -2.21237637509797
H          -0.86150404979233   -1.03295563223450   -2.96318309033455
H          -0.81616865276041   -1.05597726388268   -1.39983066654497
O           0.43500878527266    0.48113372410989    2.45134300285042
H           0.91514447959345    0.66229184225847    1.62401311412799
H          -0.37626591584559    0.99424418965806    2.39690729767148
O          -0.14708170781955   -2.01092044748170    1.60940414368774
H           0.63361570249193   -2.15588164222996    1.01542385527618
H           0.09219827299123   -1.21433574479805    2.12974640145546
H          -1.13282765940820   -1.44874386660675    0.65526614204585
N           1.85991916210482   -1.94018994973664   -0.16933892881992
H           1.59836330872122   -2.19877672835494   -1.11293301093343
H           2.80602892555514   -2.26133846893187   -0.00824209068918
H           1.87042302129080   -0.92266439775052   -0.14096297184852
