    26
        -50.44410013  Gyration_radius:  2.49521711421 Dipole_moment: 7.233
 S          -0.32980451224202    0.31057479233148    2.42647905403335
O          -0.74203423817545    0.90626483811699    1.17952178425222
O          -1.14604516519260    0.54068276985916    3.55761223950203
O          -0.13522874655998   -1.21658687220388    2.17368809763886
O           1.12251245385606    0.75083339321272    2.73158633327917
H           1.64035957936388    0.52670046288682    1.91779073114075
H          -0.62569371713939   -1.50461446259207    1.35152215423607
O           1.00749256183667   -1.22849995637472   -1.32682351371778
H           1.47600246367952   -1.71507520905428   -2.00662934316899
O          -1.14564098081628   -2.12484129873651   -0.02507192445886
H          -0.40288830186732   -1.79847205505556   -0.58475481571483
H          -1.05469044995966   -3.07821067881966    0.03490348992480
O           0.94399007615342    2.31461115141186   -0.42611001539732
H           1.77497266151935    1.92600650313404   -0.13829292922842
H           0.26511849668869    1.95235450759450    0.17033921423014
O           2.41480974205859    0.00795590039979    0.57923570801219
H           3.08286094795090   -0.61708244553150    0.86675316813540
H           1.86563832208541   -0.45404690023401   -0.10070215701734
O           0.02011966945063    0.79967078710502   -2.45350343845382
H           0.60769829792124   -0.40065991552526   -1.81134808587308
H          -0.92657214261986    0.72571436567072   -2.16782842372333
H           0.38507354212069    1.51596225207355   -1.89117480085033
N          -2.34617194460482    0.49783090659875   -1.22604749673232
H          -3.15851037363326    1.08809801032121   -1.35217151675070
H          -1.92857490868833    0.73532613748876   -0.32856510535338
H          -2.66479333318823   -0.46049699407553   -1.15040840793637
