    26
        -50.45933118  Gyration_radius:  2.42007678862 Dipole_moment: 2.266
 S           1.89019200806071    1.01320723026799   -0.25607998682920
O           1.59666558523143    2.41237088541405   -0.36515282128870
O           2.02053998607316    0.54185242108635    1.11375311489518
O           0.96398014553963    0.16166796536302   -1.00911634452000
O           3.30608162167170    0.78847913318764   -0.95599861204553
H           3.69177650658204    1.65914114386379   -0.94384867390812
H           0.92302130358980   -1.15777186146431    0.05554207497645
O           0.81671821700770   -1.88031926663433    0.70860718607039
H           1.50735858369532   -1.70042851793521    1.35301790159398
O          -2.49605368659218   -0.50720421785160   -0.42754806995578
H          -2.11070242044353    0.44026544420862   -0.59666451268782
H          -1.88933920106715   -1.14000446866941   -1.05979722362310
O          -1.24259271337140    1.66577735437023   -0.70221228387886
H          -0.39053419107218    1.32842307761779   -1.03385864889756
H          -1.03669171348650    1.92875172569382    0.21359261862021
O          -0.23853221522303    1.60653713121550    1.84351416767155
H          -0.05410952745579    2.45683941839019    2.24600812575942
H           0.64474921615860    1.22516149574584    1.61748467563900
O          -1.40947765023588   -0.89823237838897    1.80751968990828
H          -0.60383022193141   -1.37871681488372    1.49856159858020
H          -1.10191034712171   -0.00944524939135    2.04955104236468
H          -2.17400819461930   -0.71936208105417    0.54123900886048
N          -0.87402205387389   -1.85811280682366   -1.81699195666153
H          -1.08259772517400   -2.16582336722910   -2.75740749331265
H          -0.53378868583444   -2.64419215863076   -1.27530970721349
H          -0.12289262607151   -1.16886124746801   -1.84840489021010
