    26
        -50.45933169  Gyration_radius:  2.41998366351 Dipole_moment: 2.255
 S          -1.50173263637106   -0.52806402265368    1.45960854366085
O          -1.04715418012117   -1.72491870861865    2.10485190164094
O          -0.97523329420712    0.69482693528105    2.04590973233336
O          -1.29938040482046   -0.53321511264788    0.00756675958468
O          -3.08533913224104   -0.48158654537263    1.64537841276293
H          -3.23044330882878   -1.03607954589698    2.40593654278956
H          -0.95471349417525    1.11425806539181   -0.19885476871099
O          -0.65949965320511    2.04133994369516   -0.31396501009237
H          -0.85284093209101    2.44316989539922    0.53797032666153
O           1.48225773498798   -0.15260850062350    1.95069234121113
H           1.70790163160637   -0.51624745198500    2.80856868576436
H           0.55923907321937    0.18851591814828    2.04375457559874
O           1.73604114273383   -0.40845340544965   -1.86817337215231
H           1.51077265370220   -1.15217055195371   -1.18186847406080
H           0.77823768789431   -0.18087731511051   -2.31395641358985
O           0.97527908811960   -1.96657707383004   -0.03458570668425
H           1.34053645060757   -1.56265424079622    0.77407856965291
H           0.03040079206617   -1.73185813908723    0.00688581800999
O           1.95023438588683    1.48581109803127   -0.22652209484231
H           1.02878763230321    1.83665016846524   -0.28367914900021
H           1.99561669514511    1.02075952672913    0.62483804383022
H           1.94343062610159    0.41336055126193   -1.26081360141911
N          -0.59949252309752    0.12501180696244   -2.67294188621180
H          -1.10422081355322   -0.26014071599928   -1.87474309023725
H          -0.98561241389491   -0.25640742142941   -3.52615809720253
H          -0.74307280775640    1.12815484206534   -2.65977858924444
