    26
        -50.45168976  Gyration_radius:  2.43187404618 Dipole_moment: 1.666
 S           1.14540391066769    0.17857834815570   -1.39133585501096
O           0.30800289147753   -0.11072340940276   -2.52099834063669
O           2.46174655291279    0.65457706664757   -1.62127925278417
O           0.40928481459842    1.21903140691888   -0.49998606694501
O           1.24769690985551   -1.08511281207680   -0.50338164548386
H           0.34982445085773   -1.50488498296213   -0.33110975803142
H          -0.59005202474971    1.17329194549425   -0.59588431974052
O          -1.02235045897892   -2.11416162604042    0.10041555652398
H          -0.88187287940339   -2.91583079203411    0.60737338572934
O          -2.16491885279354    1.15378125048547   -0.72258867859874
H          -2.46645958133349    1.89324833627464   -1.25318439078471
H          -2.30772295641160    0.32921866527444   -1.28249071878858
O          -2.18303377081087   -0.98985418218492   -2.16371073819562
H          -2.00041224946515   -1.67715468419893   -1.50825662907172
H          -1.31272638199059   -0.76170242255173   -2.54502098716821
O           0.53156254294776    1.18182259216656    2.33531939817801
H           0.39647310234329    1.97239586027206    1.80839049760018
H           1.40162815299757    0.82777588359827    2.02217592285852
O          -1.64328830969644   -0.21194990568803    1.69843323402330
H          -0.82710751872095    0.23972818268914    2.02808056829816
H          -2.07786664279396    0.42282872485831    1.11641939352476
H          -1.31150487174802   -1.40647028925440    0.76782229268006
N           2.90837450762093    0.45946764300248    1.25891684285592
H           3.73353390703128    0.93798742258813    1.60067342107125
H           2.81374430883545    0.66999813618551    0.26881427329574
H           3.08204040672751   -0.53588634826002    1.32639260462505
