    26
        -50.46277155  Gyration_radius:  2.51614090793 Dipole_moment: 5.082
 S           0.88503341678006   -1.25707340676347   -1.55452666191403
O          -0.27016383277668   -2.03100923263687   -1.91312064613523
O           0.69834196377585    0.18713545367414   -1.67877237617730
O           1.45277324054424   -1.58880990438096   -0.24948730423584
O           2.01874091371972   -1.63893329170665   -2.60425165429914
H           1.52231014071522   -2.03590636676794   -3.31267396486426
H           0.29951689764811   -1.56254324284261    0.92765896032334
O          -0.37703970381125   -1.44586664796138    1.63490779233028
H          -0.36398921526540   -2.25024049744270    2.15624939498044
O          -1.74951596128557    1.31059367288327   -1.18373739534095
H          -2.18159005180363    0.47219539922137   -0.91387420474011
H          -0.88881311425489    1.03152629260385   -1.53212986242385
O          -2.33699434546721   -1.18194852033282   -0.36438624389461
H          -1.86711276336929   -1.25712086851657    0.47830637829757
H          -1.74757290569739   -1.59371124282248   -1.01966935311487
O          -1.37882018847507    2.63051705894698    1.05184449394459
H          -2.25842130203579    2.80406448470579    1.38860288743774
H          -1.51026907899684    2.19181646517466    0.16754724568606
O           0.34569918082613    1.11197849136752    2.31949373361645
H          -0.32585421673265    1.73442591995738    1.93890175154404
H          -0.04462543549950    0.22206244420709    2.24776591392614
H           1.38250571452051    1.06395274458641    1.26006493941843
N           2.05187872584086    0.86110103013935    0.41067761621798
H           2.27298498190613   -0.14982199575351    0.42490892080951
H           2.87446887001398    1.45347664890452    0.40361359519685
H           1.49652804852231    0.91813914167436   -0.48391396642739
