    26
        -50.45315584  Gyration_radius:  2.4642744581 Dipole_moment: 6.333
 S           1.97815700795218   -0.33144103729696   -0.34048246920905
O           1.71107248367934    0.91278556537341    0.40482527535503
O           2.61087435723670   -1.34963936892095    0.43843206188037
O           0.51357664934968   -0.87615927703003   -0.71187466418371
O           2.56029634915133   -0.02374319934265   -1.63982066156076
H           1.82191864010924    1.25993929876595   -2.04554507414975
H           0.24852877522325   -1.38990046801790    0.10547001794406
O           0.23147198761747   -2.01434432917011    1.57849605252204
H           1.18897423124977   -2.14947134097683    1.51088067172172
O          -1.19187957071853    0.77092209260448   -1.93862181416892
H          -1.77452544970642    0.32200966396379   -2.55363009497701
H          -0.63924852066281    0.07432486487756   -1.52102255752745
O          -2.45104972457116   -1.95500811721964    0.84440436624672
H          -3.01261688849422   -2.25676686691437    1.56057728540804
H          -1.54372675642722   -2.18946770072617    1.09380120225142
O          -2.14308175400387    0.78485004669745    0.79371568236744
H          -2.37816454199932   -0.16153323826199    0.78326375133086
H          -1.92210803879711    1.00797278302758   -0.11790305165194
O           0.00735487069256    0.42422768434281    2.43765163908173
H           0.72406533622382    0.73335539652708    1.85531759628448
H          -0.81981639486394    0.70005655724886    1.99408672131728
H           0.12581630707333   -1.15535623885505    2.08605724890916
N           1.17746209983940    2.08097730394119   -1.77002163671966
H           0.20357781063759    1.86636055253949   -2.04172361611127
H           1.49088239430960    2.99077332919968   -2.08916304953257
H           1.28218833989665    1.92427604361999   -0.71717087283903
