    26
        -50.45335468  Gyration_radius:  2.50737914281 Dipole_moment: 8.528
 S           2.22758778007639   -0.98322618045087   -0.39485606433332
O           0.91232385023870   -1.32964034510698   -0.98681212516748
O           3.33694444836632   -1.48051222457371   -1.12928334377312
O           2.26234173667559    0.48831182920055   -0.19483819634220
O           2.24007496813357   -1.61767841629756    1.03275124302075
H           1.39674921937203   -1.38848524647182    1.48578271900714
H           1.36204885189397    1.09090658892955   -1.31601266027926
O          -0.07815174855892   -1.14239758343506    2.26103246507065
H          -0.12101067861357   -1.76605826006804    2.98730337581386
O          -2.84824219666173    0.03332273696761   -0.73895564791722
H          -3.71957808733052    0.12122987624616   -0.35042277713120
H          -2.35481278765473    0.84105491743258   -0.51592319722023
O           0.48514504988882    1.43793275580653    1.51238863784402
H           1.25265853062175    1.15349885964141    0.96474827936145
H           0.20308593210427    0.63702756743755    1.97909072355339
O          -1.24776535813875    2.21013666818636   -0.22457871619420
H          -0.61342365813111    1.92450036962799    0.50920797539992
H          -1.40913348757547    3.14371378420040   -0.08428774759445
O          -1.34141943961107   -2.06742113199693    0.21599267930380
H          -0.53146856168905   -2.00341378324651   -0.32812378807898
H          -0.65771067615322   -1.51777479756160    1.52715573796565
H          -1.95249197458467   -1.41226684655643   -0.16691195422788
N           0.48454516668077    0.97982682306902   -1.91943474242049
H           0.62122229913598    1.21303620176362   -2.89585884853594
H          -0.29614253267991    1.50661112296559   -1.48103856887615
H           0.38662335420194   -0.07223528571842   -1.74811548824846
