    26
        -50.44837134  Gyration_radius:  2.40352896859 Dipole_moment: 1.443
 S          -0.42218818596964   -0.45995038410890   -1.78720446714466
O          -1.11949029024812    0.67892132728482   -2.31589715685475
O           0.18047012561815   -1.37638624994678   -2.68706960427262
O           0.68523827479659    0.08304965018865   -0.83306500092147
O          -1.37033904668505   -1.25345914244736   -0.86366106267656
H          -1.56924628730621   -0.74564807650704   -0.01336306044141
H           0.57951891563607    1.06757483390837   -0.64434280093962
O          -1.70507027667490   -0.02750367856787    1.34293478039169
H          -2.35082626682438   -0.46548837628162    1.90080382943767
O          -2.06377342881166    2.19288171891928   -0.30585292292431
H          -2.14984550263733    1.52837630536748    0.39320857408766
H          -1.95795172491980    1.69954744470317   -1.14245442428594
O           2.29508834807410    1.03128666036361    1.34285998559957
H           2.54598082438520    0.59867546011034    0.52237761251114
H           1.75049639687031    1.78596868213863    1.08945835542031
O           0.48524650468920    2.59647158819883   -0.30387785999305
H          -0.51193391212923    2.61561027047957   -0.19866693117002
H           0.67388988239517    3.10846654492495   -1.09316533084726
O           0.55311972904128   -0.97784835003487    1.99554860133273
H           0.75348958897794   -1.60628736346511    1.25935050460623
H           1.22382046057375   -0.27113811182080    1.92936325301015
H          -0.78733380059644   -0.34756640195288    1.67855382235567
N           1.04602278574851   -2.68621953378978   -0.10152902004227
H           0.86261301440006   -2.22958161243393   -0.98959279112475
H           0.39463841620317   -3.45889494436546   -0.03061954200509
H           1.97836546541042   -3.08085826089949   -0.14409732307987
