    26
        -50.44148506  Gyration_radius:  2.48767862358 Dipole_moment: 4.421
 S           2.40956275232312    0.10625378123388   -0.48584025092328
O           1.99372665005934    1.17455943226594    0.38969597250296
O           3.58121013485847    0.30171930334638   -1.24831375327934
O           2.49678882808364   -1.19007644369396    0.37566247190366
O           1.22530392122379   -0.22168835058316   -1.44870147638273
H           0.64285866411536   -0.91109272773140   -1.02748939061669
H           2.10291321765463   -0.95807248852696    1.27839895023505
O          -1.23255025235285   -0.31440619869032    1.60846244411576
H          -1.91348884418233   -0.16945078448414    2.26668549032179
O          -0.13206505948592   -2.04161994406965   -0.16542410565042
H           0.59056546631745   -2.54951412040243    0.21388072625617
H          -0.55763260988987   -1.54868115737083    0.56240899197168
O           1.33847310430788   -0.36726423789917    2.49601313340303
H           0.37508688173148   -0.40080414082703    2.31550733868459
H           1.60889193504386    0.53825250860535    2.29146953831685
O          -2.64668896406842   -0.91050422295661   -1.03062638645346
H          -2.46937706221414   -0.65395403226830   -0.11927016953209
H          -2.02871014273259   -1.61962989056334   -1.22894990341099
O          -0.60148320977393    1.89838577131851    0.55814388235693
H          -1.03282074645017    0.60593622970618    1.18893662884425
H           0.36812238237170    1.83293185569029    0.50042862757312
H          -0.91483580518738    1.86767856520834   -0.38981841689752
N          -1.26096792216725    1.49528202596923   -1.98380827206062
H          -1.60958491883553    2.18631676595924   -2.63440942361132
H          -1.93627678150032    0.73535919644645   -1.93094442368441
H          -0.39702161922373    1.11408331433449   -2.35209822397162
