    26
        -50.44350450  Gyration_radius:  2.4722796325 Dipole_moment: 8.427
 S           2.10573743420143    0.58176749986212   -0.38437561647751
O           2.03943213423634   -0.29054777536616    0.75327376101714
O           3.35140758076500    1.15147389148200   -0.73398625850791
O           1.48913882989844   -0.18213451298672   -1.60616679936732
O           1.08124554800448    1.73547925740065   -0.17988751594921
H           0.15043584998137    1.34655807065561   -0.10620241264501
H           1.15553384420928   -1.06652638962333   -1.27486074062740
O          -1.18652234568755   -1.61887559916544    1.17551911161464
H          -1.82292933140678   -2.16391532322902    1.63986427817156
O           0.39582592660775   -2.38929339283576   -0.84374111761731
H          -0.11196881339884   -2.17760613388781   -0.02935963455318
H          -0.23809033447464   -2.69850919983672   -1.49407295905261
O          -1.30296316652311    0.78782167390494   -0.06865099895698
H          -1.34315000337101   -0.09615296750851    0.34641532956966
H          -1.43763206556223    0.65544335151990   -1.03787204949310
O          -0.40775183877827    2.04524309448858    2.35151041888403
H          -1.05686836134597    1.85856281406204    1.66279493897914
H           0.34254821061746    2.44556291751225    1.90291579653974
O           0.40317116680286   -0.52483683730713    2.86058609120412
H           0.10606570803067    0.40457809396964    2.91044889504173
H          -0.56644333184965   -1.24731965034360    1.88887088065527
H           1.17636520099438   -0.51371037685565    2.26770203882543
N          -1.18746617555909    0.47828690075872   -2.74711346463306
H          -0.18633388014034    0.30105841367224   -2.73266977860677
H          -1.32804726324874    1.38730300437863   -3.17057433196085
H          -1.62074052298107   -0.20971081474038   -3.35036785203206
