    26
        -50.47289148  Gyration_radius:  2.42609380372 Dipole_moment: 2.396
 S           0.82772768567969    1.30187837949373    0.80732985367008
O           0.03650536673045    2.50319664125188    0.70265121764251
O           0.25647298789400    0.31713930822550    1.71907983303064
O           1.14380346152818    0.71309608142976   -0.48275126263616
O           2.21114883193743    1.74531209294980    1.45279159391290
H           2.04760313785743    2.66654871186315    1.62322196496470
H           0.05577425491738    0.61470538307647   -1.71986319291950
O          -0.64651434203761    0.51178208108960   -2.40268392293383
H          -0.24049037832769    0.74186181667077   -3.23967332085995
O           2.40660429336843   -1.27986583408679    1.84271426768631
H           3.13452618332294   -0.65722238184620    1.79852345698545
H           1.60319130525824   -0.73750476372574    1.92252609745857
O           1.47739935724111   -1.96716723691763   -0.66450695847532
H           1.48527707625366   -0.99554672856620   -0.71790091354571
H           1.83806460340234   -2.14753210206118    0.21732782750211
O          -2.23425708469048    1.70083974887840   -0.47541944128881
H          -1.88782804247341    1.45685969023661   -1.34873234754577
H          -1.49326907076850    2.15099492795392   -0.02070249624271
O          -1.08744366532015   -2.02425702233169   -1.33022051929256
H          -1.67891618798734   -1.31459081815633   -0.10063947067085
H          -1.04775337333844   -1.28347407418100   -1.95709211241261
H          -0.14364319012758   -2.20024982879557   -1.09599636492519
N          -1.97368163023636   -0.64467984899478    0.69276180120688
H          -2.29280775123373    0.26704537427611    0.25137455372610
H          -1.11431248325558   -0.38808026521202    1.23410719192996
H          -2.68318135235665   -1.05108932255623    1.29177265388382
