    26
        -50.44283666  Gyration_radius:  2.54459076559 Dipole_moment: 6.567
 S          -1.41510897446329    1.98555400164909   -0.16134463226689
O          -1.24199896396346    1.02734135281760    0.89222642198897
O          -1.97770331420633    3.24393662352763    0.15755422911940
O          -0.01229750158789    2.17159756922426   -0.85965670212148
O          -2.20863683816289    1.33433534588323   -1.31846282088179
H          -1.90093280831275    0.39082944258812   -1.41415024320092
H           0.67476200712618    2.32974820929382   -0.14257393868528
O           2.31152940021439   -0.30995726450213    0.76336938164074
H           3.05362239476368   -0.75287203336523    1.17628753846646
O          -1.28331623360711   -1.06519193845197   -1.76021887373565
H          -0.30892600777960   -0.84466329503334   -1.74279322922616
H          -1.50012611451562   -1.24589947812411   -2.67737838805817
O           1.17008101585256   -0.18760275740761   -1.72066622939789
H           0.88607145711345    0.73635956121975   -1.65220897666890
H           1.64900960733364   -0.36975171438047   -0.89152992730647
O           1.91078430920629    2.32817392481157    0.82804142363779
H           2.67677920800979    2.75126185200430    0.43430815540492
H           2.11291636966557    1.36390545153421    0.89052907010883
O           0.21331634475496   -0.91264259078843    2.08401386834841
H          -0.34389649774497   -0.14852140010459    1.85841395566724
H          -0.24977926264344   -1.67697489122040    1.66792878581033
H           1.49098216890949   -0.57943436391556    1.30398487111348
N          -1.24123295025584   -2.77472121041404    0.73164212489369
H          -1.39220674995479   -2.23346337547441   -0.11446773569645
H          -2.13232588094875   -2.85813438604713    1.20400085747348
H          -0.94136617480981   -3.70321261536035    0.46315100354669
