    26
        -50.46983910  Gyration_radius:  2.51161800471 Dipole_moment: 2.838
 S           0.21846548148154    0.42819612008797   -2.12943221512507
O           0.33422282350959    1.85536790449183   -1.93006663427818
O           1.46126144827992   -0.27486562174983   -1.82752988827595
O          -0.91761348950626   -0.15943827087300   -1.43776449794058
O          -0.06166341930211    0.20365927288533   -3.67207849501017
H           0.57628159755594    0.77578585549895   -4.08626192976079
H          -0.42426935252203   -1.77529539391466   -1.01697445332112
O           0.15321244662756   -2.52349006845088   -0.77986513389424
H           0.96776735879708   -2.34441549890551   -1.25982629494358
O          -1.62966869947932   -0.68396991907029    2.61962727861996
H          -1.88263254894137   -0.11603648260483    1.86647075037775
H          -1.60353549400859   -0.11921650997685    3.39304327164891
O           0.24398300904844    2.33248979722889    0.67193278954146
H           0.30518650566669    2.36587248105249   -0.30702815178521
H          -0.66923348108512    2.05491323854571    0.84354153173236
O          -2.16587006201537    0.99394685084719    0.53864036248398
H          -3.06297075969568    1.17507781948929    0.25390332667331
H          -1.72475158981236    0.54641815242844   -0.22495112434509
O           0.65225287219744   -1.86941168631502    1.77208338598572
H           0.42555058026262   -2.30637894668865    0.92027813003330
H           1.37501107384655   -0.63685912493106    1.25474078233084
H          -0.19997775338916   -1.57258574089578    2.14960216507676
N           1.82072437764419    0.20904232110341    0.74311544507740
H           1.23450305083321    1.08182668480316    0.87597972814020
H           1.80078263439347   -0.00300211847119   -0.28768176848705
H           2.77298140961305    0.36236887441026    1.05650164943282
