    26
        -50.44307971  Gyration_radius:  2.50772993077 Dipole_moment: 2.705
 S           2.00805339914277    0.11513735824234   -1.08016185397182
O           0.88094441659038   -0.36953187655921   -1.80325093355569
O           2.46470713262358    1.43987909333497   -1.32745731655322
O           1.80613827208854   -0.07841103765260    0.42702588562623
O           3.21852634299017   -0.86284973605562   -1.38725511854514
H           4.01094188681404   -0.33591504676175   -1.31442819143126
H           1.16278663353784   -0.87771750107234    0.63911099015845
O           0.24608530385623   -1.92761520332291    1.05755503272220
H           0.61662416291842   -2.38462551509592    1.81529486260166
O          -2.60359028937310    0.03114206176355   -0.54742548360747
H          -2.14430131341042   -0.75620589685156   -0.93266423914203
H          -3.53618989663562   -0.08172332929176   -0.73475491904232
O          -1.19391945590713   -2.05631425907820   -1.39623338033167
H          -0.81824898769654   -2.39440712017274   -0.57427429366475
H          -0.48032200564464   -1.52683793377217   -1.78666554222583
O           0.14397810157835    1.65358141889473    2.11367576384423
H          -0.09618183592545    1.99967635800561    1.21619827162737
H           1.01743401886967    1.27230140337143    1.99456131246490
O          -1.54327875790012   -0.38126310747098    1.91811751491495
H          -0.99972142789150    0.41583063539363    2.13759234847862
H          -2.03683034467392   -0.13966438223884    1.10824902521392
H          -0.53226088783217   -1.33836690962336    1.43085778391537
N          -0.36476637708736    2.14963837265563   -0.47288173184929
H          -0.67303124786701    3.05022526689723   -0.81755713092750
H          -1.06051611456857    1.46327211517407   -0.74764297482915
H           0.50693928141502    1.92076477127219   -0.93558570189495
