    26
        -50.44410002  Gyration_radius:  2.49535116763 Dipole_moment: 7.233
 S          -1.86825917165199    0.48392772859167    1.53942370936078
O          -0.47737928920960    0.82146847081820    1.36307891116113
O          -2.66081789851681    1.37180095770028    2.30236615793845
O          -2.47905675273055    0.26092496845212    0.12124191113264
O          -1.96218010229302   -0.94242816223148    2.13346707277693
H          -1.41807586216253   -1.51216039459134    1.53346416230220
H          -1.91403517241976    0.69517421976292   -0.57992678246438
O           0.41813767889255   -1.10078303553538   -1.70254903069530
H           0.71038520657776   -1.61564618118489   -2.45612582773048
O           1.55005843586055   -0.94733850361363    1.76952709784528
H           1.06020603703318   -1.76248229277201    1.62831408301841
H           0.88537135839496   -0.23618206573027    1.75251701654748
O          -1.05649921618975    1.12078712491064   -1.85790109296311
H          -0.44535687562459    0.34758264605088   -1.84835324812764
H          -1.61954646991183    1.02470945921485   -2.62894906208582
O          -0.60065850633459   -2.37340845204611    0.41518713134844
H          -0.24605581969197   -1.87245237188494   -0.35981726469102
H          -1.20895876568827   -3.02782313243479    0.06699403675287
O           2.49826534930183   -0.16475968289706   -0.62788542764370
H           1.28788610264641   -0.72366165873940   -1.27685736454916
H           2.26222717566537    0.79696995835639   -0.57773162613540
H           2.38837397924111   -0.48728806511529    0.29205740397411
N           1.41190853279133    2.27002744535408   -0.32804249490822
H           1.87112257500365    3.07887517860721    0.07085442614048
H           0.76092751865867    1.91083552738017    0.36725735632845
H           0.85200995234418    2.58333032356370   -1.11161125460979
