    26
        -50.44307973  Gyration_radius:  2.50792722345 Dipole_moment: 2.704
 S          -0.53314539689123    1.97632260824675   -1.01238274181435
O           0.84240127603890    1.68326519019089   -0.78816689051470
O          -1.06036925261716    1.83577740601735   -2.32650040673327
O          -1.41653175348568    1.20329474350241   -0.02650392762810
O          -0.77017027784063    3.48129635603914   -0.57100283611804
H          -1.48595411702952    3.80710204733644   -1.11176575530703
H          -0.91162982331288    0.97793175536500    0.86330914775149
O          -0.30269135789139    0.56231289533993    2.11827002208968
H          -0.93123119449530    0.69299478898276    2.83112219602336
O           2.01930322383073   -1.72697951957534    0.14237887620020
H           2.25040615379652   -0.84113068787196    0.51806185977240
H           2.77574457706439   -2.29294256881270    0.30065356299974
O          -2.11165595065270   -1.63451731055879   -0.29876761326291
H          -1.43095127054969   -1.55133888131307   -1.01487763618914
H          -2.45699107692064   -0.74424728735153   -0.19568841866259
O           2.38855026956240    0.68578255268606    1.19487075284222
H           1.67339601646735    0.73635430408897    1.84068955047998
H           2.05110107985122    1.16984399177717    0.42433036232572
O          -0.27156518438488   -1.89835408191943    1.59068651371935
H           0.53892748748686   -2.00033518156557    1.05171208396402
H          -0.26232613279083   -0.46955210895011    1.95771191164010
H          -1.01993626803926   -1.95140099310573    0.94561832142159
N          -0.10804426618712   -1.02926956942024   -1.97590950502243
H          -0.25589426098391   -0.04781136558954   -2.17900606064064
H           0.04881544763792   -1.50865510341349   -2.85366551326002
H           0.74044203233429   -1.11574398013269   -1.42517784607132
