    26
        -50.47220503  Gyration_radius:  2.41997482865 Dipole_moment: 2.798
 S           1.06764246151598    1.16575609594807   -0.68272522502506
O           1.80932850670014    0.54045912265789   -1.74963930467592
O          -0.35020351063239    1.30100452606561   -1.00216198338171
O           1.27522618312183    0.54558054128603    0.61253100962660
O           1.63358914316825    2.64255710677128   -0.54150670152791
H           1.91950107376278    2.81774531034139   -1.43113335626652
H           1.03465164235028   -1.02945378549282    0.95291994826247
O           0.85895527794259   -1.99161035795328    1.07139168797971
H           1.39104730142939   -2.27053616192481    1.81813960932745
O          -1.83309222173904    1.04884242933513    1.26533604887845
H          -1.39546841615624    1.24598680320409    0.41966174874130
H          -1.28941253945064    1.50604037976847    1.92588559880039
O           1.06686675834343   -2.03154593102910   -1.70997111948566
H           1.48811137050300   -1.15433808701705   -1.81905942126268
H           1.17242881067087   -2.26516313923642   -0.77383240611279
O           0.34669416256695    2.42868632133154    2.27338459445963
H           0.58370066479210    3.25557848404753    1.85025120836922
H           0.79551429998589    1.73334129477999    1.76078272173367
O          -1.87834627602374   -1.59289861357645    0.94799856437782
H          -1.96365793935165   -0.65184280328405    1.23379436422441
H          -1.71713672235715   -1.38044890066536   -0.56598339332563
H          -0.97510334861672   -1.86427179814177    1.18513482017624
N          -1.37772828489744   -1.08452417211085   -1.54995631194922
H          -1.09622828054072   -0.07972972132157   -1.47108556511352
H          -2.08661339734347   -1.22195120582238   -2.26089369655435
H          -0.48026672977503   -1.61326374797169   -1.75926344027619
