    26
        -50.46862858  Gyration_radius:  2.47522718358 Dipole_moment: 4.024
 S           1.28488534817451   -1.84219656868585   -0.05108010024944
O           1.27714464704037   -0.81194305070674   -1.10367782746291
O           1.31431234142657   -1.24538198234291    1.25617020417517
O           0.24045135882865   -2.82370219499810   -0.25914212105079
O           2.65064609634616   -2.62943076967945   -0.24366430579594
H           2.39097921682268   -3.29475561590307   -0.87215336740590
H          -1.08266339196482   -2.03088190615129    0.19804235397248
O          -1.89342628780187   -1.49643694362568    0.38485048296524
H          -2.49898629932529   -2.08349179451171    0.84086996095272
O           0.86964350886692    1.15741398168430    2.31846278915343
H           1.22614638666661    1.54291078821068    0.90778919774447
H           1.10618144376964    0.21640044777047    2.21706334420929
O          -1.19739714870164   -0.23243811634643   -1.96526718092660
H          -1.71339727075960   -0.71622979327055   -1.30225338817112
H          -0.27527113874766   -0.51907908595338   -1.81109455098806
O          -1.14674107648822    2.21660709806970   -1.10165663450630
H          -1.22101388827104    1.29662096106893   -1.49493434276253
H          -1.58737103321591    2.80893632182378   -1.71109615355276
O          -1.64961433217315    1.05068948625629    1.45583227548589
H          -1.63635461949069    1.58639910414025    0.65119294309838
H          -1.74984723244881    0.13021642677386    1.15816109950567
H          -0.11244810207665    1.17299569284562    2.23465565913042
N           1.34510341790831    1.64244297942120   -0.17316275335485
H           2.16739574516288    2.18130335274850   -0.41847779646421
H           0.48043047469433    2.06696676515260   -0.55953029988361
H           1.41121182576555    0.65606442621095   -0.55589948782496
