    26
        -50.46862860  Gyration_radius:  2.47513004607 Dipole_moment: 4.025
 S           1.93215013262145   -1.09347380657900    0.34263306504398
O           1.52381813720085   -0.52528082491017   -0.95344867706858
O           1.68024638854284   -0.16946718818238    1.41442717791935
O           1.39344683934997   -2.42410362417437    0.53413890919659
O           3.50556261999333   -1.28388006625899    0.24092871915693
H           3.56037874907118   -2.15357210014184   -0.14081113626523
H          -0.14918262497381   -2.12918850204134    0.88278626711480
O          -1.11237783878359   -1.93502003291285    0.99391388525574
H          -1.43065515319884   -2.54489441638182    1.66179792037498
O          -1.93459312750206    1.12197728624733   -1.56287295329596
H          -2.56562971972274    1.27236575031284   -2.26684045299775
H          -1.61252858393723    0.17749772727293   -1.66641123787065
O          -0.94761852664518   -1.27787691459439   -1.67961087108585
H          -1.23281732669162   -1.70170772727315   -0.85570218414360
H           0.00653487497457   -1.10923008250534   -1.54773759607689
O           0.25792832884897    2.05267672852349    1.78628242957186
H           0.86458422302922    1.30300648443416    1.93355415008771
H           0.45605561953160    2.10069435355339    0.29487974207223
O          -1.97031865483531    0.68921881865908    1.25956377445791
H          -2.16125487850187    0.91319065870401    0.33874589621719
H          -1.67317358217151   -0.23684679341103    1.24948333040480
H          -0.64047179682084    1.64733020880460    1.80517768841896
N           0.54867996574655    1.90619374726451   -0.77566488887568
H          -0.40477994178309    1.80927155508445   -1.17403353691655
H           1.02609983353553    0.96399862249699   -0.86540437588376
H           1.07991601312183    2.62712013800970   -1.24977503481383
