    26
        -50.44793414  Gyration_radius:  2.52321504686 Dipole_moment: 1.640
 S           1.34395463065204    0.23257831692896    1.74303941930324
O           1.34621324523950    1.27927334038854    0.72902697174934
O           0.17161067231128    0.24820980219458    2.58210730760646
O           1.59666012730361   -1.07798522185597    1.15006853418459
O           2.58118427807549    0.53730035581260    2.69264768320605
H           3.32512933520478    0.60926331313861    2.10198306245981
H           0.08139048668058   -1.43563085465386    0.84420957514300
O          -0.88839404160726   -1.61630121296585    0.70856994882830
H          -1.19098320567620   -1.93894983923457    1.56116515503136
O          -1.89539231516589    0.60512211535380   -2.30879517393357
H          -2.67387393939702    0.46136230361867   -2.84907573094703
H          -1.34335491136636   -0.24025489000027   -2.36507042444120
O          -0.54087066736331   -1.57661772145709   -2.17526819001339
H          -0.73190613536512   -1.92890242012716   -1.29824192616844
H           0.38702475055100   -1.21747722694972   -2.10377171823452
O          -0.93354293171568    2.26726257935046    1.37371782541717
H          -0.04533465944051    2.13791777145109    0.95485979005616
H          -0.80813700402050    1.77344460151956    2.20574482713958
O          -2.23909971545034    0.52117842316181    0.17972779222070
H          -1.73632190141875    1.34058057082997    0.66908300209278
H          -2.13563768990771    0.64116457095247   -0.85102164872628
H          -1.71383904935446   -0.31790421694009    0.41626537482155
N           1.80294899707656   -0.45184238994689   -1.63164836389840
H           1.66325505012329    0.54878870707550   -1.54674072585547
H           2.68327671257271   -0.60636003668144   -2.10655692335339
H           1.89403987139517   -0.79522073098566   -0.67602544365084
