    26
        -50.44133695  Gyration_radius:  2.67056320275 Dipole_moment: 5.368
 S           1.69687791923942    0.29705892120859    0.27597976662463
O           0.96140327427630    1.49683746569713   -0.01055887162306
O           3.08395117890975    0.31305756588441   -0.02978086695871
O           1.46906956718986   -0.05028604289994    1.79148961271354
O           1.01436542957597   -0.91108473274156   -0.39432498098673
H           0.13781720733805   -1.07794299151798    0.12545655895929
H           1.95258407352750    0.70288197395487    2.25363521956508
O          -1.09191758206219   -1.14973203129897    0.98119868344715
H          -0.73946442182587   -1.09560742294762    1.87323548276406
O          -0.69125893797377   -1.07496761598830   -2.72481802262243
H           0.11603961774446   -0.93602481381702   -2.21927660190088
H          -1.15494199867261   -1.81186614311060   -2.28486723188950
O          -2.51058883230341    0.81741457984644   -2.16321605275015
H          -1.80525126101687    0.21034107411161   -2.48241517573369
H          -3.34070235857444    0.36761592175913   -2.32804404495946
O          -1.83326085114644   -2.92482882614172   -1.04044588572918
H          -1.76537227245310   -2.37482900026220   -0.24620332329810
H          -1.29927337899525   -3.70512924388830   -0.88340903593047
O          -1.69471202528867    1.21968314219580    0.34263660215198
H          -2.08479372015110    1.18131930174438   -0.56222934488959
H          -1.45615428046647   -0.20904330683915    0.76338427100619
H          -0.77952403725484    1.52843528748537    0.20681179441676
N           2.81743648861480    2.08562857902143    2.28201149230749
H           3.28463979626279    2.54957970680036    3.05171450138369
H           2.20313432651557    2.74954037776524    1.82545224019540
H           3.50989708898544    1.80194828397603    1.59658322372713
