    26
        -50.44736864  Gyration_radius:  2.47018160414 Dipole_moment: 3.373
 S          -1.17274838513853   -0.85352579215963    0.86956805212656
O           0.26745711871078   -0.92705577159207    0.85421269062231
O          -1.82383371535269   -1.98735063352509    1.43538475276006
O          -1.56255398362025    0.44743079133230    1.66673303757310
O          -1.71441082226595   -0.57066466923242   -0.51340801324675
H          -1.32857630973256    0.29871761650012   -0.99997512644840
H          -1.29580120249677    0.20955689479787    2.58361620650789
O          -0.85208875734432    1.41319752031300   -1.72904380023900
H          -1.35387507716895    1.46747658829310   -2.54493709066353
O          -0.57866336057665   -0.96159538913325    3.61556363624556
H          -1.07647050304875   -1.69430672179901    3.22494840475728
H           0.33728067740891   -1.08354061140458    3.34830254795206
O          -0.07523482690214    2.68200800419020    0.66041304401612
H          -0.66660555647228    2.11931025242281    1.17264697461165
H          -0.38010338164917    2.61364373911980   -0.25287127903859
O           2.10517028800385    1.05478304480097    0.25985497965477
H           1.61663812270546    0.27356046851760    0.55828148516171
H           1.53415140318981    1.81083097956412    0.48905754405698
O           1.46805826057443    0.65988884535029   -2.28077398976335
H           1.91258240091831    0.87187281228972   -1.42229923993870
H           1.35727132344407   -0.32079387672679   -2.26975781013291
H           0.13286589273318    1.13895553521314   -2.00306207228443
N           0.86985527839240   -1.93962493106891   -1.81665298649741
H           1.55375416149284   -2.68084879224727   -1.90466639419025
H          -0.01065185359553   -2.28675020626771   -2.17601566829885
H           0.73653281781214   -1.75517569755370   -0.82511988530080
