    26
        -50.45892230  Gyration_radius:  2.42502025805 Dipole_moment: 3.965
 S          -1.06283076827322   -1.46128151092226   -0.26834427717942
O          -0.60951090749937   -2.25188439500125   -1.38887274989954
O          -0.08689189930242   -1.45688476971882    0.82336373906838
O          -1.46282795868735   -0.11254437223558   -0.62202028454942
O          -2.35688468479032   -2.17064174114669    0.29115044314955
H          -2.13901940740897   -3.08022077861552    0.12165409049597
H          -0.28897113346115    0.76935412275560   -1.28160140367727
O           0.47715535024696    1.25609376228725   -1.67755033376962
H           0.10403555774221    1.96567908426254   -2.20251221261724
O           2.35231636386990   -1.13290869086279    0.16337760316183
H           1.44307388584733   -1.39314313247083    0.52448394406290
H           2.23415101276861   -1.22081153017320   -0.86445572050529
O           1.63502403023456   -1.18147791604339   -2.25376819386972
H           0.81021162619922   -1.69488583283815   -2.09921939678030
H           1.35027393615943   -0.25763720604792   -2.34875599586865
O           0.24489231504897    0.87203113751050    2.22606706800677
H           0.06476107347027   -0.03054809955000    1.91385464608222
H          -0.58590193736093    1.36669495506780    2.05236807814098
O           2.11710196461240    1.30263780559197    0.50002210053408
H           1.45403572341532    1.27476155064553    1.25723604013443
H           2.38256197854709   -0.03635841826614    0.35143228850377
H           1.59593978294823    1.50194459830162   -0.30099604972027
N          -2.18183811542371    1.80612599362936    1.41170338278389
H          -2.11602514292953    1.15257040299874    0.63249878536980
H          -2.42896399606324    2.71381625581554    1.03815112642618
H          -2.94586865991668    1.49951873501870    2.00073327251338
