    26
        -50.46705312  Gyration_radius:  2.4703126003 Dipole_moment: 4.739
 S           1.91248269252544   -0.80714394186508    0.65671114302624
O           1.31287088433656    0.06633811456305    1.63187737856948
O           2.29796529581677   -0.12247914865332   -0.57412959305216
O           3.25812518901750   -1.35370440934254    1.28645826902111
O           1.09588598052013   -1.98087131540151    0.36861746987359
H          -0.29377851611875   -1.65071350247927    1.28730070290770
H           3.59874297180440   -1.88055668894949    0.57143901014382
O          -1.13040888246644   -1.41402905135204    1.73531401201955
H          -0.85840059502080   -1.06951715441280    2.58847969211037
O          -1.51989052632561    0.40298563284174   -2.04511361128264
H          -1.97340931663003    0.34965662234923   -2.88704570898582
H          -1.28963721877062   -0.53469756669574   -1.79336712482242
O          -0.97957429803229   -2.03160603949775   -1.27479752607559
H          -0.11481494367342   -2.05944516798070   -0.81279444013736
H          -1.61728850631931   -2.28299004882401   -0.59988925672651
O          -0.09083747845196    2.31965987245684    1.25345452102789
H           0.34830392949601    2.16349849251083   -0.18434380643055
H           0.46901742097011    1.60967602177360    1.62225793215759
O          -2.23031680658818    0.85271408293894    0.68711481238053
H          -1.93728752558183   -0.00033821060742    1.06630734074371
H          -0.99189910823085    1.91940154107520    1.19275057280765
H          -2.18178668336484    0.75138534437456   -0.27199992321918
N           0.65511281056494    1.80289347948926   -1.16512853866487
H          -0.16477526448573    1.36539542316710   -1.62613853648214
H           1.37608995201743    1.04224078473726   -0.97817404067929
H           1.04950854295699    2.54224684379296   -1.73516075024449
