    26
        -50.44736869  Gyration_radius:  2.47005171921 Dipole_moment: 3.373
 S           1.18981093457032    1.18759395650498   -0.17908190130136
O           0.07497920101492    0.79938553982051   -1.00745813929608
O           2.18759785379029    1.95890209598536   -0.84174377788752
O           0.60370215739648    1.99436889334655    1.03975054224652
O           1.81255636114036   -0.01745393258167    0.48885082035903
H           1.15194275916311   -0.63071011620552    1.06249032800909
H           0.29262325335125    2.82001028912356    0.60372058976133
O           0.34557503423329   -1.51339227666241    1.81807241063400
H           0.92075744375894   -2.17081279992075    2.21479638502648
O           0.09540444490332    3.68412250891042   -0.86735694234132
H          -0.50989423083058    3.19254402025521   -1.43050699481178
H           0.98809568710219    3.47371535621171   -1.17735334881074
O          -2.32817744410077   -0.35471339072213   -0.26604261606854
H          -1.58632903721617    0.10003176842619   -0.69139198181968
H          -2.33508385555079   -0.02136745868453    0.64992744660812
O          -1.55436382165242    0.52366173344929    2.22237087398134
H          -1.04730399646687   -0.27316773304004    2.42150298335817
H          -0.90047747394365    1.20013441149360    2.01357983866933
O          -0.97501094649762   -2.61594686379123    0.00280429328701
H          -1.65884111678857   -1.91580985473715   -0.14454836711451
H          -0.35739868775368   -2.52739893633412   -0.76193219625169
H          -0.23009145781947   -2.02210732640904    1.08987230211904
N           0.79986367081320   -1.88193652384483   -1.90573730112991
H           0.56189246631003   -0.90072909049607   -1.78118658829936
H           0.67415993761630   -2.10950455578276   -2.88413985752188
H           1.78401085345646   -1.97941969431687   -1.68925880140446
