    26
        -50.45892200  Gyration_radius:  2.42511023275 Dipole_moment: 3.967
 S           0.14851623859569    0.65908191499472   -1.69623519113379
O          -0.85438864235518    0.10148776790429   -2.57345741799615
O          -0.44909533363211    1.47986719699552   -0.64120373400998
O           1.06156560205262   -0.32400404385881   -1.14482148371481
O           1.02810564464695    1.63069792263032   -2.57558545082233
H           0.37096811319100    1.95229277821790   -3.18230470121313
H           0.34274512931095   -1.46115579784462   -0.26135161426640
O          -0.16131666952609   -2.12649817327517    0.27151614037399
H           0.38347502607886   -2.91414376188897    0.30516087705623
O          -2.51100728650097    0.52493601853522    0.51129737853936
H          -1.78505592841462    1.05240770959278    0.04294125930091
H          -2.67156992453601   -0.27778785721712   -0.12768055584950
O          -2.43901711510656   -1.40639318060543   -1.10835814587244
H          -1.94967738716147   -0.92384031197366   -1.81226991109721
H          -1.77392062730544   -1.95625538056022   -0.66226825871629
O           0.68102445640288    1.37340870447868    1.85116736436586
H           0.33545148306338    1.61350710914640    0.97508922113702
H           1.58949249288482    1.04171768223570    1.67858911856961
O          -1.07098442924616   -0.48213460283521    2.24704162260472
H          -1.97078043797684    0.08945354646465    1.38148956295933
H          -0.70192548821449   -1.21100705222668    1.71270847835933
H          -0.35928915752944    0.22984678985785    2.26666981773586
N           3.02401916872309    0.42203893668215    0.83729235711607
H           3.59290152659176   -0.35369581113819    1.15206257510483
H           3.64999703371418    1.15407748807064    0.52583367232833
H           2.48976648209655    0.11209439746530    0.02667703894948
