    26
        -50.47392084  Gyration_radius:  2.4399058531 Dipole_moment: 2.164
 S          -1.18548635685033   -0.16246540667986   -1.51752667648700
O          -1.63865695596961    0.51699854756485   -0.31337916559811
O          -0.57283697546299    0.70951714803772   -2.49292577837689
O          -0.35510772755945   -1.31183229097650   -1.18419715581612
O          -2.49029610604605   -0.73245150169394   -2.20837227653896
H          -2.22493278420504   -0.70050934308712   -3.12003498080256
H           1.16012448442704   -0.84105396282094   -0.49200877007133
O           1.94696473996472   -0.46890173374189   -0.05328044561544
H           2.15589673681499    0.32497323202573   -0.56616103556935
O           1.63424435481498    1.81588307863560   -1.61509235202824
H           0.82097161213610    1.41354181047833   -2.00210291924291
H           2.02593836027438    2.35103700038090   -2.30679896352514
O           0.08625020733085    2.45677853455827    0.59852023419811
H           0.73724162637756    2.45707575624212   -0.12102457281258
H          -0.65422172444303    1.92375870000653    0.26589672382969
O          -0.21319038140125   -2.98306742648894    0.86695004745198
H          -0.33033652628421   -2.53019249233053    0.00530077934412
H           0.73531300100619   -3.09921925265069    0.96408923743675
O           1.12492042953305    0.63952616475239    2.23987134654992
H           0.81546591286564    1.47354506741598    1.81348675223162
H          -0.15493228493308   -0.15025672963242    2.22921940902177
H           1.61711846863953    0.18131406090881    1.52142014457966
N          -1.06341796630776   -0.69762950055671    1.96879005068624
H          -0.79846631152543   -1.68036863700338    1.71592823715105
H          -1.42313744437205   -0.23774892994967    1.09499852233368
H          -1.75543036885996   -0.66825190340084    2.70843357766040
