    26
        -50.46997627  Gyration_radius:  2.47175569657 Dipole_moment: 4.050
 S           0.21694866574936   -0.83175861499660    1.09133823555253
O           0.44150936176389   -1.28465575093641   -0.28206205768399
O          -0.46496225476411    0.48243485352362    1.06116195375807
O          -0.73089832985169   -1.82674159287938    1.79310401992970
O           1.43734958347063   -0.76972610835533    1.85582563625495
O           1.00937979985054    0.68335884581984   -1.95857138063175
H           0.10085980808749    0.93932573821060   -2.16467138708440
H           0.91557897520436   -0.15093349614336   -1.44212626438806
O           3.49341021826395    0.76745395095786    1.43561645387990
H           4.10359778758790    0.24128607961478    0.91518189463514
H           2.79957175344642    0.13583075911445    1.74771457783215
O          -1.66388424802035    1.11853556959922   -1.20009505762816
H          -1.27048683945240    0.86164780678406   -0.33105328412663
H          -2.53455203413458    1.46354010179630   -0.99734535624590
O          -1.75933532529551   -1.58267329920322   -1.73601665149102
H          -0.88296985629282   -1.66769279080106   -1.30600433313246
H          -1.85212349783732   -0.62782435844890   -1.88770782468239
O          -3.00161769656621   -1.73880849965949    0.55000071739504
H          -3.41927943455196   -2.59366263896381    0.67012519217675
H          -1.62436737576947   -1.73533709379662    1.35930364127298
H          -2.64585159029816   -1.72754941972167   -0.38308599868491
N           1.47788201860715    2.00777558159173    0.24458772580725
H           1.38699573448677    3.01673219862532    0.29116029577410
H           2.37325176672406    1.67175539959304    0.69026639203768
H           0.67609978146000    1.51388613962680    0.73689974914834
H           1.41789320813495    1.63380062904895   -0.75354686967603
