    26
        -50.45870243  Gyration_radius:  2.4489587881 Dipole_moment: 6.237
 S          -1.32703038158313   -1.11296038414478    0.34890271249568
O          -2.01292508836525    0.12636425865188    0.65324054309602
O          -0.56413347555066   -1.03105390277437   -0.88682416432228
O          -0.54050640527342   -1.60999777292421    1.46691985677219
O          -2.43535228781328   -2.21137086182460    0.08298798988704
H          -2.71265111486845   -2.44978174154725    0.96155160603875
H           0.22288142869199   -0.11304803326767    1.60285130123819
O           0.49683798211553    0.82222938703263    1.55276023112568
H          -0.33432774326644    1.30198220800638    1.58556324628751
O           2.06783648150245   -2.32763975513741    1.60464513849036
H           1.09898981301679   -2.22626469777826    1.59858485235450
H           2.39242359754445   -1.72991158685581    2.28103165754756
O           0.01444097588892    1.16351067382197   -2.05320547780465
H          -0.27729529225606    0.24840506834445   -1.74853326976952
H          -0.70037444811934    1.80712290342904   -1.62080175659491
O           2.18159558140393   -1.37755950004208   -0.93681622778128
H           1.22614973621851   -1.47001469397730   -1.07617649070536
H           2.35135120710536   -1.81451250598135   -0.07992656516899
O           2.02480680297773    1.19911293893457   -0.62494234031844
H           2.29516691353550    0.24841009591245   -0.78569604491430
H           0.95866100864281    1.28044434867040   -1.49220620866547
H           1.59759458828736    1.18174349875633    0.25881825877898
N          -1.80262616962119    2.46398495307761   -0.83528612390298
H          -2.62307583178932    2.71003723403573   -1.37320357241222
H          -1.55698431272349    3.25310558799451   -0.25172301888518
H          -2.04145357568693    1.66766226959805   -0.23251612285511
