    26
        -50.47392072  Gyration_radius:  2.44023032364 Dipole_moment: 2.175
 S          -0.80090569248804    1.21146801659662    1.27296281405129
O          -1.32228625197619    1.13520109510203   -0.08318167717346
O          -1.44413535690384    0.31409940766706    2.20458238645070
O           0.65065944245509    1.08973716160854    1.27966472310363
O          -1.13417313283483    2.67265120199363    1.78151736881674
H          -1.22844142736216    2.50899091093521    2.71276241402301
H           1.16997869498342   -0.49830656824693    0.82562672538249
O           1.34971260677124   -1.39681784685976    0.49340755839160
H           0.67109792563645   -1.94797681846880    0.90908996053201
O          -1.87431011325166   -1.42037675879405   -0.94022682264682
H          -1.71576912055143   -1.91256087250598   -0.11928434703153
H          -1.87446388133767   -0.48594977442355   -0.67579451996075
O          -1.07393783226181   -2.20803907800793    1.59912184293435
H          -1.23029927709237   -1.27610530199368    1.88225104654018
H          -1.48050829740033   -2.76417187547278    2.26525517665570
O           2.58298960472644    1.69203636984008   -0.43019487062201
H           3.18226261200791    0.94855705183110   -0.32708870966042
H           1.95022497991285    1.61877568975655    0.31511609539249
O           0.54017560079069   -1.47379973962433   -2.05572362212312
H           1.00352176673065   -1.58915583485932   -1.19512876958228
H          -0.40903252362292   -1.61780552298020   -1.82916168027425
H           0.55777474497855    0.02546967198967   -2.16743345162748
N           0.50020809925441    1.10404871320584   -2.00460716675485
H          -0.26289361172804    1.23652770239447   -1.29429725635169
H           0.29689505937010    1.61122147077808   -2.85798296113738
H           1.39565535119053    1.42228154852656   -1.56125226732444
