    26
        -50.46997637  Gyration_radius:  2.47152885645 Dipole_moment: 4.047
 S          -1.23971403498750   -0.30333435584170   -0.54889930981677
O          -1.82290031837973    0.02530374069108   -1.93916281342058
O          -0.08186024208635   -1.18189523863017   -0.72000892064096
O          -0.79290013013415    0.97227584250224    0.05619116183147
O          -2.28321760907994   -0.91593425829537    0.23439526002116
O          -2.16456390085081   -1.65034691670032    2.72688004720451
H          -2.38589985875221   -1.41522947158323    1.79226972486550
H          -1.92839460743007   -2.57977735595488    2.70844346562813
O           1.70206784950366   -0.96285153008986    1.22346502096813
H           1.09038803774063   -1.22625476706466    0.49685920661001
H           2.18729220409044   -0.20839953640070    0.86459741578193
O           1.78385451838580    1.50431083884280   -0.12361683766331
H           0.80950110986762    1.34202424277625   -0.10612214460107
H           1.88880903137150    2.41490688511959   -0.40278462632593
O           1.83631189707599   -0.21250372645485   -2.27819451446241
H           1.17693782834353   -0.76803157324304   -1.81263318295899
H           2.17503209675012    0.37691634005449   -1.58450557644839
O          -0.01646295006711    1.34581801692871   -3.24389760383591
H          -1.15437180017240    0.59667645218369   -2.40973741902849
H           0.77149164083443    0.78951775980635   -2.98512013627514
H          -0.16931099413658    1.18154144112565   -4.17624491701932
N          -0.27521831665920    0.19079923054933    2.48310509602341
H          -0.11674609394706    0.87428927455371    3.21532880071182
H          -0.99795994374792   -0.52543580946555    2.76226213281310
H          -0.61191638654033    0.64420000429300    1.58302200852363
H           0.61975099300710   -0.30858553970747    2.18410865151330
