    26
        -50.47006553  Gyration_radius:  2.43523699468 Dipole_moment: 3.767
 S          -0.69339715915695    0.57800553027659   -1.99979605491266
O          -2.13480664695045    0.57885751462666   -1.97889164901792
O          -0.09271572748059    1.32389602642506   -0.89600529302736
O          -0.10486022283737   -0.73801892581414   -2.14077308914176
O          -0.28288387932218    1.40057550153501   -3.30162631956869
H          -0.98729282804479    1.16507564242274   -3.89589485723350
H           1.02651282172520   -1.41055403270372   -1.28230423820091
O           1.73801286686436   -1.82917386032354   -0.72383568750934
H           2.10475548890460   -2.53441249567875   -1.25854738982943
O          -1.31341415827460    1.75213923119052    1.35646941433048
H          -0.91133299553835    1.62924132485373    0.45755323467057
H          -1.62104944893845    2.65869332049241    1.38646961786010
O          -2.08315908664127   -0.79036001324751    0.29716930394884
H          -2.16292799986031   -0.44307114611643   -0.60932574310358
H          -2.18894889831118   -0.02155568123253    0.86986016384289
O           2.25341857698527    0.70874261345067    0.16317024773735
H           1.48988487417114    1.06106370910009   -0.34418545937143
H           2.36114675825700   -0.19884951545466   -0.16911302438240
O           0.00416590793988   -2.07391718892748    1.36507686870708
H           0.44066144714834   -0.76592061992223    2.01612463810053
H          -0.83376609250515   -1.78695615392095    0.93966079510197
H           0.64330445497754   -2.16614315337981    0.63277467721335
N           0.76409996029028    0.23850497359062    2.26404368915152
H           1.14763790632736    0.29675769193814    3.19973116926610
H          -0.04627356540249    0.87279641809389    2.14084130679990
H           1.48322763570755    0.49458327872142    1.51135367858028
