    26
        -50.44576820  Gyration_radius:  2.58149173893 Dipole_moment: 6.266
 S          -0.17082365071556    2.86236062938386    0.48474572229429
O          -0.16567626604430    2.10512071976734   -0.74531285282854
O          -0.29416780520094    4.26618943889226    0.39197437097786
O          -1.31875163443285    2.29899668937503    1.37486383928850
O           1.11208103808283    2.51709841275144    1.28452057449488
H           1.35844151728245    1.55473879719705    1.20643371248414
H          -1.51747446050944    1.35801142741718    1.12866572820010
O           1.87998021404595    0.03426589052728    1.18772130489745
H           2.55991432965694   -0.06469587105341    1.85576408408935
O          -1.98220608343404   -0.13542797983849    0.68985680861081
H          -1.75235089166560   -0.19367872964886   -0.28703852243203
H          -2.93714549384848   -0.19216271127078    0.75368485722770
O          -1.33308275578234   -0.15514326656480   -1.82482679167383
H          -1.37064767061852    0.80033243884782   -1.95113838539300
H          -0.37165735992584   -0.33693181650882   -1.80378691705526
O           1.38347534155776    0.01075218818936   -1.54138452240797
H           1.77938162873031   -0.13311352765565   -0.66977324269863
H           1.03750796673517    0.91627446940370   -1.48543491078142
O           0.08294465124227   -1.77330383656531    1.50669865712371
H           1.18064617960930   -0.67164165111890    1.38232150730152
H          -0.74234649880852   -1.27303029699819    1.41850007471444
H           0.17722908476021   -2.26715768961201    0.65429415014207
N           0.32175149286941   -2.82427938739137   -0.98616883931001
H           0.93231396564491   -2.15653855820760   -1.44623580484258
H          -0.56849570471187   -2.80033844658347   -1.46892845367570
H           0.71915886541834   -3.74669732271229   -1.11001613874197
