    26
        -50.46067603  Gyration_radius:  2.43771270645 Dipole_moment: 5.085
 S          -0.07277331743320   -1.73240296230407   -0.87465988643760
O          -1.51365687937261   -1.68611876082354   -1.01340101929811
O           0.62664373812579   -1.01900712939584   -1.92615513127799
O           0.37338249227138   -1.33268322375106    0.45031559580687
O           0.34206539426316   -3.26040650830165   -1.00439099540892
H          -0.04990790492298   -3.51189885178179   -1.83417099472671
H          -1.06195172720719   -0.48783534937467    0.80473047833119
O          -1.77444021071785    0.08557078352212    1.15348798424883
H          -2.57700945402370   -0.27267002025898    0.76627247860022
O           1.38879167648958    1.24629163540534   -0.83917457342041
H           1.21131516547259    0.37041398981002   -1.25567157534933
H           1.77730453033554    1.12250007181279    0.49768152120344
O          -1.67119743098752    0.44852497313064   -2.59878799494294
H          -1.79118940620652   -0.35538008114006   -2.05711647283558
H          -0.81345364748922    0.31964888465822   -3.01536276680277
O           0.37664210540186   -0.37634711634653    2.93249989522046
H           0.44174616670900   -1.05710910418667    2.24004762498237
H          -0.51335853903655   -0.01653745089750    2.81888391607365
O          -1.05269345551633    2.10339723637577   -0.57197162036782
H          -1.41604773780506    1.69020775818595   -1.38484141097811
H          -1.38639560387172    1.55111212708415    0.15770650545731
H           0.49267247498044    1.69163471927097   -0.78392099674256
N           2.10282446062222    1.12913204832007    1.59117156275915
H           1.39927625444893    0.57192247174832    2.16290065818965
H           2.14715888959285    2.08858719372870    1.91933072814031
H           3.01425196585789    0.68945265549124    1.66459648957688
