    26
        -50.45061313  Gyration_radius:  2.44936053229 Dipole_moment: 4.852
 S           1.64772282536162   -1.01563740453661    0.73325927073541
O           1.28598742904227    0.33086288540505    1.13674497271211
O           3.03124333595666   -1.31720200699451    0.78369579684849
O           0.85473778943189   -2.01476663119742    1.60609664424937
O           1.07933229712172   -1.25833867055667   -0.67341150896405
H           0.66274112096159   -0.37081226749019   -1.11741451550613
H          -0.09344870418561   -1.74399595937726    1.48968992550044
O           0.11321273731399    0.78913041190115   -1.67418189168563
H           0.79732306720176    1.45939457372608   -1.47555369020117
O          -1.60834020071518   -1.35190169699059    1.08921953494872
H          -1.68066097348683   -1.64550091430712    0.12400614993442
H          -2.25100499487155   -1.85845116877596    1.58962417857351
O           2.15622718580299    2.17335268038895   -0.55741987004697
H           1.96175267148473    1.53054276573133    0.15640225418237
H           3.06968779096277    2.02909795811247   -0.80777958539306
O          -0.05213088036238    2.67553235747217    1.57948635930679
H           0.51071681060130    3.21156250135995    1.01390524121531
H           0.42651401147975    1.84122689959720    1.70138034940414
O          -1.77055046723881    1.27202589972416    0.05874620371636
H          -0.66449264512390    1.01170337008770   -1.08004621028071
H          -1.80644495167169    0.44922082013225    0.56668843894833
H          -1.30962916197170    1.91374972652671    0.64033666444301
N          -1.65454346348044   -2.00447297620372   -1.45893945674473
H          -1.88161520550866   -1.16115420634757   -1.97257292693631
H          -2.16387925364624   -2.77534586653100   -1.87184604562788
H          -0.66045817045989   -2.16982305086781   -1.58011626334800
