    26
        -50.43947618  Gyration_radius:  2.86996881614 Dipole_moment: 10.679
 S           0.62098193904923   -1.20844602324993   -3.05357848855730
O           1.31246313060092   -0.36868201596474   -2.10097698805089
O           1.29025024813935   -1.52654678038713   -4.25718926282860
O           0.16304977524246   -2.48613396109785   -2.30012751806105
O          -0.73634362068533   -0.53159320333261   -3.40654636256224
H          -1.17556871486269   -0.26207522265116   -2.56090551475648
H           0.56157615754619   -2.45119615222110   -1.36983596911930
O          -1.79513736137732    0.30472064814530   -1.15040506562882
H          -2.53340988897933    0.88457106296057   -1.34470577854739
O           1.12185833166996   -2.11207604059348    0.02934424546225
H           0.34186476472582   -1.81292115404424    0.53505166616325
H           1.60546915040496   -1.31417237581347   -0.21979058001574
O          -1.33621223136923   -1.31273242949766    0.98884317693501
H          -1.85542436482626   -2.11706722580462    0.94163504132058
H          -1.59347536006077   -0.76732776096274    0.21888555363683
O           0.73382188107209    0.52419536508998    1.72677995050767
H           0.66824004394159    1.16694839515339    2.46240157885886
H          -0.01649461463824   -0.07429553114035    1.81419158313666
O           0.30639319642193    1.64159326750222   -0.65656294957359
H           0.85702601498049    1.11029125174231   -1.26121256656249
H          -0.99749542326454    0.91449471260910   -0.93562280587363
H           0.55461117294830    1.32922725746586    0.24558261402066
N           0.47733569953925    2.41356271629416    3.73387471201858
H           1.34160607190256    2.44172885404050    4.26064209065109
H          -0.28551693333704    2.30716223428010    4.39108416719028
H           0.36853092521313    3.30677011146816    3.26914350025201
