    26
        -50.47230279  Gyration_radius:  2.4351920147 Dipole_moment: 1.593
 S           1.52211175693446   -1.43683047433272    0.26173824484412
O           2.64763899165618   -0.86089140489403   -0.43590207448345
O           1.28825403235926   -0.86209686425255    1.57702287025376
O           0.29588903690593   -1.44653319826989   -0.52363929167405
O           1.90343681302851   -2.96283847507631    0.49341350758484
H           2.84102466446032   -2.94249309260150    0.33520027636036
H          -0.85415081024886   -1.26349929403078    0.65044630846145
O          -1.52728857090513   -1.09191054524403    1.34497077674058
H          -1.04569862409051   -1.21908549257125    2.16600669849477
O          -1.95676742613172   -1.27793781914783   -1.90095688759903
H          -2.55565893548738   -1.49542057558973   -1.18098480982000
H          -1.07687767171889   -1.55747718451759   -1.58780912263452
O           1.44882572163982    1.38685161144856   -1.14262883727081
H           1.94408702668464    0.54762096589517   -1.04439957802556
H           1.40285040339347    1.74711914620593   -0.24081910282843
O           1.00561366901022    1.71066896015835    1.55501944536113
H           1.12183382058092    0.72483841109626    1.60301905512129
H           1.56115645739876    2.07628271617894    2.24471541388376
O          -1.68097413736987    1.55805773363691    0.99022430209968
H          -0.79266572197508    1.78973010048372    1.31234335158070
H          -1.47229891240214    1.47857675928276   -0.56119251999431
H          -1.78231497330606    0.60221637050766    1.20479294593485
N          -1.15510211342107    1.26619739428272   -1.56152637651138
H          -1.51227172164370    0.31265280075788   -1.81793319679674
H          -0.09200987209886    1.24639168154627   -1.52567754601570
H          -1.47864292325315    1.96980977904957   -2.21544386306768
