    26
        -50.45112453  Gyration_radius:  2.45507083916 Dipole_moment: 9.168
 S           1.14040355886342    1.01655607523212    0.97693759507401
O           1.15221042421430   -0.41275542147978    1.14161777618595
O           0.57933663467610    1.79238406475732    2.02477664750535
O           2.55605683409753    1.48898672942954    0.62787920244086
O           0.32429780556554    1.33964676998627   -0.32127945705405
H           0.42435034723552    0.61305144077615   -1.00480877514703
H           2.91707421675652    0.74245204134607    0.00408134884433
O          -1.86394357649101   -1.33098699093658   -1.03272453835901
H          -2.38560631639083   -2.09229869944568   -1.28969777580270
O          -2.51696427154128    1.35282661893743   -0.36783262727095
H          -2.48516226393290    0.43604829183736   -0.67879567268297
H          -1.61204777172332    1.68039409776470   -0.42139543263401
O           0.35066286987604   -0.49184834591289   -2.14876112278876
H          -0.45080862890746   -0.93569120799309   -1.75930816227824
H           0.03989144988678   -0.05050555118139   -2.94318081694045
O          -2.03831405718361    0.80484395753888    2.29728530519825
H          -2.42443374256548    1.14219556138499    1.46849019020655
H          -1.18989410442820    1.25801551057531    2.40311507615686
O          -1.25892187788544   -1.58908829056181    1.44303896765613
H          -1.68835297120124   -0.82387033671339    1.89493919129174
H          -1.64488735612272   -1.46830953927465   -0.04937109322954
H          -0.31486009460870   -1.35872043723987    1.44388615485325
N           3.10942880471195   -0.53523988683696   -0.82845841945472
H           2.77075233718763   -1.19127930496265   -0.13261287131987
H           4.03566468292246   -0.80781222279985   -1.13032517683206
H           2.47406711700444   -0.57899492422099   -1.61749550362463
