    26
        -50.45112454  Gyration_radius:  2.45508566388 Dipole_moment: 9.171
 S           0.22149183808610    1.20157494087689    1.34085013612305
O          -1.00601903210642    1.20027871852740    0.59013330195288
O           1.12916882435644    2.26831275410132    1.11108211476628
O          -0.10636307461525    1.05748785495345    2.83101684032675
O           0.98269123225960   -0.12815960210757    1.01091483169534
H           0.34267365029649   -0.87685952682282    0.82438397734339
H          -0.90307768419422    0.39213427021050    2.84397792306201
O          -0.10694690776237   -1.36823989633475   -2.10484914066316
H          -0.47018662234043   -1.76463121045563   -2.89775474620735
O           2.48785903757535   -0.46939874755654   -1.37414924463110
H           2.29177295830213   -0.38996346768008   -0.43373039800276
H           1.70636887729550   -0.87901386812697   -1.77362392064566
O           1.65422359026245    2.15033901058836   -1.64859033941991
H           1.58875510061010    2.39542714422709   -0.71481323231866
H           2.18017019650130    1.33031932181807   -1.67727158173057
O          -0.50647186737206   -2.14303150392653    0.36409545345619
H          -0.48020321080603   -1.89295514845430   -0.59908688823465
H           0.06790818775535   -2.90832988847576    0.44696667050222
O          -0.75176413871409    1.11121448313757   -2.09634894246505
H          -0.38146795193921   -0.38989237920912   -2.13729231221002
H          -1.05243720038823    1.23710087788963   -1.18093756437894
H           0.10433309266535    1.60104730783048   -2.13231847521868
N          -2.05236839941536   -0.55688786456228    2.47242795275046
H          -1.72107281195912   -1.40893249113371    2.03375005590543
H          -2.45973212139322    0.01860475616405    1.74290020007482
H          -2.75930557285146   -0.78754585538583    3.15826733808797
