    26
        -50.47230064  Gyration_radius:  2.43592867896 Dipole_moment: 1.583
 S          -0.79500230004943   -1.43335229417421    1.33000445604488
O          -0.94030926484678   -0.69391256229310    2.56201499013437
O          -1.84155710281268   -1.16969611963488    0.35587661058085
O           0.52193499913949   -1.29339344370864    0.72355413468055
O          -0.92879754290408   -2.96388939308141    1.73909497131509
H          -1.26465992823505   -2.88522808775720    2.62538507374930
H           0.16174717783896   -1.39710968132459   -0.88718620226805
O          -0.06849160958116   -1.39637286917156   -1.84209735455683
H          -0.98134796508044   -1.69431841061771   -1.85669565831167
O          -2.12947974569526    1.33624621731501   -0.22536884818309
H          -2.05607658272866    0.36728883909451   -0.01738811982635
H          -3.06302371355764    1.54683451856292   -0.17854817575769
O           2.85552123100606   -0.84929022636182   -0.44032811924397
H           2.64360192297504   -1.23743113809897   -1.29396240961190
H           2.16268382976766   -1.17652190672086    0.16265676237352
O          -0.11248886224494    1.63486417842669    1.62385717828965
H          -0.31360581357337    0.80351929023066    2.10107260870246
H          -0.88828250851273    1.78173684142044    1.05659686620915
O          -0.16523459565205    1.26182019254524   -2.14863959042945
H           1.00054279615124    1.53909210728471   -1.13884721168781
H          -0.11464078566958    0.28036176509267   -2.21418055387058
H          -0.95755267805498    1.43214715307509   -1.61042157757693
N           1.68068191530715    1.56574506252659   -0.31226367115215
H           2.25773269434499    0.68897299442022   -0.33993281332749
H           1.07072868702874    1.55847972119270    0.55944323968629
H           2.26537571565157    2.39340725172110   -0.33369656597709
