    26
        -50.45020628  Gyration_radius:  2.49106350708 Dipole_moment: 5.961
 S          -0.13252943292515    1.71201939017335    1.07389329999163
O          -0.61164860745479    0.33970735933117    1.09126889691513
O           0.37578874214756    2.19681587966605    2.30601041824022
O           0.92342730532357    1.82833480916789   -0.03003983047624
O          -1.28787842453399    2.61553674482342    0.59325676562359
H          -1.52032430535703    2.30165773514730   -0.32643438800275
H           0.91961300074347    1.00471344755141   -0.68248226219536
O          -1.71968595524546   -1.08889205776026   -1.66813421428383
H          -2.32617597564938   -1.48499079315267   -2.29582572498083
O          -1.55132438037322    1.62353550625382   -1.78281965207508
H          -1.68924826544188    0.65358488325268   -1.73911658092308
H          -0.69336632216597    1.75085735093797   -2.19763628401796
O           0.92836016955116   -0.14658618683601   -1.56038590529957
H           1.60597175364743   -0.71947399940248   -1.08285411268083
H           0.08113954948263   -0.61580211370745   -1.50875801739880
O           1.68625188768965   -0.35211955048101    2.34283559811892
H           1.84006766273126    0.50381387287371    2.75261317569133
H           0.78893086129048   -0.28475139754663    1.98457448612397
O          -2.59457713009734   -1.38260401490804    0.81401179685778
H          -2.33961413821836   -2.13762223555711    1.34779285447307
H          -1.97433678465722   -0.66559704806175    1.05333043100747
H          -2.08976985470357   -1.25878676759710   -0.76760991105765
N           2.67326367256650   -1.50262851701051   -0.12219489544087
H           2.44728175801098   -1.13544056667334    0.80413047399893
H           3.62959323539300   -1.24259283505318   -0.32786135718625
H           2.63078997832081   -2.51268889545612   -0.07156505103912
