    26
        -50.44328697  Gyration_radius:  2.53811868094 Dipole_moment: 6.266
 S           2.43181643937829   -0.32349034131369   -0.66674114261762
O           1.48340716944602   -1.25964935772576   -1.20108648263498
O           3.59820273476036   -0.05196885170820   -1.42072392950926
O           1.65169138826688    1.01644176238892   -0.37376471789106
O           2.82420697230170   -0.73141220360904    0.76930825446034
H           1.98744163782323   -0.93976369019237    1.28396349999335
H           0.92092141712180    1.13700349663419   -1.04518032223994
O           0.65502218074503   -1.27579824127139    2.06802869245435
H           0.84717343290557   -1.88914946627295    2.77935599326570
O           0.04437005943541    1.40093840385943    1.86536833026344
H           0.08756200122153    0.47045309499307    2.13692979024452
H           0.77852612882204    1.50509648970456    1.24358851367401
O          -0.35860876221513    1.57869013628146   -1.89985295979698
H          -1.01475336298163    1.74651787460445   -1.18166047362567
H          -0.17941634002323    2.42029668043257   -2.32346064714108
O          -1.94161587300797    1.96403020053669    0.22369220180509
H          -2.31165692947438    2.80453407141607    0.49722582193476
H          -1.26167056273059    1.72886791259523    0.90796584501845
O          -0.42808499725857   -2.55361136568027    0.16498644472777
H          -1.19517611777699   -2.02535447943395   -0.17134888140272
H           0.28594711447602   -2.33498923552744   -0.46095565230266
H           0.14993989199911   -1.81278918476442    1.35430556771157
N          -2.15961715338405   -0.84520472421271   -0.98248317385763
H          -1.49889991460646   -0.53905896952686   -1.68848506261987
H          -2.39845442706005   -0.03353810308948   -0.42386075110278
H          -2.99827412817995   -1.15709188911607   -1.45511474881942
