    26
        -50.44970665  Gyration_radius:  2.44920499254 Dipole_moment: 6.190
 S           0.03959799754625   -1.25043256786927   -1.28565615166468
O          -1.07439301449278   -0.65385005069631   -0.59708306750166
O          -0.04299184281559   -1.36257551560744   -2.69469615306162
O           1.32887638209541   -0.46958231184469   -0.93276012064899
O           0.28643128928479   -2.65276268551574   -0.66571697565680
H           0.18708915916624   -2.56951936686455    0.31726698287022
H           1.34468559805767   -0.19447043652913    0.03735774650358
O           1.41430189732432    0.14768794144860    1.54917236783860
H           2.23211559602852    0.59748771690762    1.76748650673016
O           0.26963160149741   -2.24031180965901    1.92832368163128
H           0.85409508809082   -2.86042341836024    2.36935066069080
H           0.71338323827956   -1.36561332043949    1.93797958247738
O          -2.03627329437925   -0.41983378960225    1.95791897951950
H          -1.91944626726191   -0.50877313663409    0.99888028103830
H          -1.59317301111218   -1.18509449943729    2.33494533137353
O          -1.03868106399325    2.08669289699696   -0.71836810843226
H          -1.32771535011761    1.16329107274497   -0.73817891180794
H          -0.44397500021645    2.15785242487479   -1.49175844251428
O          -0.46191684529947    1.77563203453013    1.85121843963137
H           0.64867287698027    0.85530292110609    1.69441558409980
H          -0.66278867134546    2.08527620240387    0.93516879128138
H          -1.18430842592247    1.14813344960757    2.06355136199296
N           0.48296782031892    1.55892542726754   -2.94635460925608
H           0.22637279264256    0.57772427241422   -3.00917196592105
H           1.48786159034173    1.59001628642500   -2.82475644580193
H           0.26957983893720    1.98922025185763   -3.83853535514198
