    26
        -50.45524957  Gyration_radius:  2.46644935435 Dipole_moment: 4.697
 S           1.38844368396770    0.66400604245431   -1.20290490163739
O           1.23586789140804    0.47790985311423   -2.61828404586766
O           0.35161878447787    1.48891838051313   -0.60085010770391
O           1.59402275754980   -0.56518858969434   -0.44278402075719
O           2.75569077420982    1.46823278047347   -0.99960331775606
H           2.79822439167266    1.98985763493494   -1.79441865564460
H           0.37899772273832   -1.61400764653644   -0.32052384073464
O          -0.41687528979605   -2.19711199748425   -0.25962183267296
H          -0.09768898896796   -3.10024501487159   -0.27847981275321
O          -3.07686347238585    0.62856276955696   -0.62429679417010
H          -2.38196198771321    0.40615223789523   -1.28555577216084
H          -3.91276198517158    0.40718393301169   -1.03663873649173
O          -1.28649436661678   -0.44192888702189   -2.29216060988799
H          -1.08025671215954   -1.21635749219753   -1.75053335777508
H          -0.43393944376801   -0.04157207784456   -2.52978805970032
O          -0.29140758237975    1.17989162739702    1.79444431857943
H          -0.09007851649532    1.41646620397418    0.81218422916513
H           0.61160241233599    0.74489556884460    2.11089970618251
O          -1.94972950883632   -0.64435495730604    1.39033953211666
H          -1.02127475832905    0.41277288653679    1.71544587654484
H          -2.50569459241081   -0.17026710219637    0.72222267588112
H          -1.45470827924617   -1.30827684388945    0.87544153795026
N           1.98385659032939    0.11665754452169    2.20608671403942
H           2.73423103845990    0.77903429628035    2.35272088406788
H           2.03857722723622   -0.20878852519836    1.23429959839267
H           2.12860220987400   -0.67244260528556    2.82235878278753
