    26
        -50.46194831  Gyration_radius:  2.51146664575 Dipole_moment: 4.761
 S          -0.83660880251442   -1.81815427063286    0.70460879573770
O          -0.40875245499985   -1.40002929549894    2.03555430557949
O          -1.62877546861569   -0.80527816094835    0.04068930152519
O           0.27847595689267   -2.30645639644175   -0.08704157982310
O          -1.80654114479278   -3.05454613033112    0.91186441677915
H          -1.23705253597125   -3.75714023116372    1.21133769767041
H           1.35970636434816   -1.10169582598789    0.37041239121635
O           1.98378388480140   -0.39074867908177    0.62110776915603
H           2.28001752900160   -0.61753003586243    1.50477175905387
O          -0.03183949724677    2.72202030166701   -1.48358304072800
H          -0.40312699706408    1.86032930435381   -1.81319797886331
H           0.43383106827378    3.10780887431894   -2.22600795156242
O          -0.85488171809649    0.36626094412825   -2.30100102302374
H          -1.26620698337681   -0.09111211651336   -1.54972623999179
H          -0.05387714873518   -0.15451167049948   -2.50692042947928
O           1.40001225666741   -1.16228416572728   -2.30713445568186
H           0.99062085240313   -1.76844571702197   -1.66806406916045
H           2.09091065546579   -0.70919730798745   -1.81612564394317
O           1.01801205910243    2.13637589888819    0.86080263553623
H           0.70882942159832    2.45363647296040   -0.02264035864375
H          -0.23821145424869    1.62826057887363    1.46058268743440
H           1.49585779757530    1.29880910264312    0.69502682688483
N          -1.12632757555676    1.07102054374169    1.79196651034738
H          -1.70968351473207    1.59511485761747    2.43437491565536
H          -0.79645763185271    0.14744147126143    2.18330509079991
H          -1.64171489832717    0.75005162324816    0.95503767752964
