    26
        -50.45834521  Gyration_radius:  2.44140841721 Dipole_moment: 6.101
 S           1.33657345194641   -0.96243237529977    0.95985773371877
O           1.82024812369986   -0.13030826292346   -0.16546532199386
O           1.85722918212300   -0.53643385466329    2.22836098381176
O          -0.22905966508840   -0.74050826107947    0.96538969641470
O           1.46013452226733   -2.37669971479256    0.65095562206130
H           0.90415221155520   -2.39018442268559   -0.83366786799220
H          -0.44407641694066    0.23890045113214    1.08325423053515
O          -0.88922120963567    1.74631967687418    1.08836386783917
H          -0.21355154015430    2.04321495152183    1.73460248952471
O          -2.78076383491954   -0.12886671118659    0.09919334107461
H          -2.30979879576052   -0.77259370668559    0.64105127606199
H          -2.49997335687553    0.73147479908412    0.44272075141060
O          -1.49015518684743   -0.45938261929168   -2.17769502514908
H          -2.00059392445438   -0.34444180504010   -1.33115248104951
H          -2.13989354998064   -0.44251967128068   -2.88175693463774
O           1.20598417046690    1.98091182993474    2.71042364793378
H           1.23054544160623    2.07837997709234    3.66366501512343
H           1.55000095818592    1.07819342304805    2.52559520914876
O           0.21670598670829    1.71031807018296   -1.32602916274482
H          -0.53016558272223    1.99044518434339    0.20373310022612
H           0.94864901629786    1.19684464255910   -0.93599877225186
H          -0.34362910229155    1.07013058845788   -1.78543153469972
N           0.82906585968734   -1.82446424866253   -1.73528628831548
H           1.36987005889953   -0.97474383949595   -1.34513456810876
H          -0.13621966872595   -1.51160717565480   -1.95164392212633
H           1.27794284095185   -2.26994692548334   -2.52790509582379
