    26
        -50.45834537  Gyration_radius:  2.4413880978 Dipole_moment: 6.098
 S           1.63949420738265    0.94472858703931    0.23332126357570
O           0.41680905612842    1.65518730648065    0.67234939275128
O           2.54936749198502    0.68697565728999    1.31370323593665
O           1.11107219008662   -0.44207678014524   -0.31264575770464
O           2.20236529530061    1.56467693022170   -0.95395935343719
H           0.88584775542689    1.78180561402223   -1.80848037874587
H           0.61146495613447   -0.93679438798911    0.41156578976923
O          -0.32777322741430   -1.71369820134040    1.40540442868264
H           0.20034937807631   -1.51813323276782    2.20868141822690
O          -1.86539339944601   -0.13879188725150   -1.91458763018106
H          -2.60556547600549   -0.37039954255056   -2.47721383437700
H          -1.39011119022559   -0.99175202850322   -1.72266011292109
O          -0.58042864130105   -2.37135953559041   -1.34390768326448
H          -0.70302247153734   -2.51256500278594   -0.39402495115152
H           0.32760888667771   -2.05852282748943   -1.42815152284414
O           1.38284176640200   -0.75212210114697    3.20102766712018
H           2.09329394248873   -1.20012651351483    3.66280259848467
H           1.82051548247665   -0.13672285270972    2.57089762547670
O          -1.93425341271544    0.34726282211680    0.93228541665100
H          -1.06961099154400   -1.06502561399838    1.41541404908580
H          -1.15128479364902    0.92272754195619    1.01769139605901
H          -2.09334496391500    0.25174307387773   -0.01662922374156
N          -0.16051417833840    1.98415599437906   -1.75176081510478
H          -0.75533521357282    1.18296291501194   -2.03551283309584
H          -0.42881799328932    2.84681166156147   -2.21222264354579
H          -0.17557449561339    2.03905240382141   -0.67338752170644
