    26
        -50.45996064  Gyration_radius:  2.5774599355 Dipole_moment: 7.110
 S           0.73702246422248    0.23256403288367    0.22682422946881
O          -0.46349765000605    1.07954023824677   -0.38637632568834
O           0.11573410244562   -0.99909696392369    0.72646002594594
O           1.57967205575035   -0.04930050815434   -0.92263079193896
O           1.35215068613058    1.01784892594918    1.26027495509333
O          -0.23849821749920    1.27891596981849    3.37568919161450
H           0.48996460779695    1.26935962012926    2.72085027549261
H          -0.37978391813231    0.33766932246602    3.59657153550492
O           1.43065584575509    0.74526699389714   -3.39846280266511
H           1.60915910308185    0.60359316183378   -2.43643295326012
H           2.22093978010789    0.46013930358806   -3.85935713430179
O           0.28871829767022   -2.48534406353222   -1.35711003820736
H           1.22934834767531   -2.39521499503827   -1.53518163724192
H           0.17520522894491   -2.04039685927921   -0.47252651110287
O          -0.32326618855251   -1.43029923274051    3.33268618806794
H          -0.23445548345123   -1.33383623080018    2.36276235331235
H           0.47796254756101   -1.86490426537275    3.62923877752109
O          -1.92508317942207    1.87516690842065    1.52832103563289
H          -1.96234440649421    2.83385533849468    1.51975082604246
H          -1.05597919540314    1.37798606883067    0.38484895342337
H          -1.36758268610844    1.63421034879069    2.33647314849139
N          -0.78407376166479   -0.43447606340629   -2.55310422966294
H          -0.03608548398276   -0.01646557679337   -3.15753923201759
H          -0.41497053062656   -1.37140711502524   -2.16709779306252
H          -0.84670936768020    0.19960968354447   -1.72344434270494
H          -1.67420303808186   -0.52498405279760   -3.03148768375432
