    26
        -50.45283492  Gyration_radius:  2.46200872797 Dipole_moment: 8.024
 S           2.13960601691757   -1.14140819571627    0.02831126373833
O           1.16500934379436   -1.05668091283892   -1.09749937102910
O           3.18561621250725   -2.07776134675586   -0.18026162717846
O           2.56481316581266    0.21428184237060    0.38441263690112
O           1.26510353017375   -1.63878094478548    1.25919941456709
H           0.31482235124619   -1.56571942896721    1.03932064585305
H           1.60681463266278    1.61563401421417   -0.48291946673116
O          -1.38814949518633   -1.48935492273618    0.82398486494377
H          -1.77236674874507   -2.29021901756638    1.18264418037072
O           1.11431590096344    1.03050538258940    2.41281272831098
H           1.13503717501746    0.31431235118665    3.05025223247942
H           1.74536823897515    0.75323837241899    1.70557779551793
O          -2.11959848237781    1.30791932709723   -1.63189123662377
H          -2.06792619651860    1.42052793440912   -0.67154393079643
H          -3.03207184539272    1.46139247452477   -1.88090863032938
O          -1.12899212372855    1.22402360196740    1.02744533110416
H          -0.39740825374882    1.30594449954698    1.68639960783290
H          -1.36106270334246    0.28004316539798    1.06118605102353
O          -1.40689463674566   -1.40813195955219   -1.76662134570922
H          -1.63410529869755   -0.47815229557423   -1.93417084203380
H          -0.43370068335228   -1.45501082959155   -1.77660383163854
H          -1.47658499201946   -1.54504909581923   -0.17360299489742
N           0.70525492902881    1.41401649249979   -0.93461860723950
H           0.83263629891919    0.34460568478529   -1.15619217734379
H           0.50931507967719    1.98010455906996   -1.75303715533158
H          -0.06485141584061    1.47971924782082   -0.22167554576186
