    26
        -50.44498223  Gyration_radius:  2.52764414559 Dipole_moment: 7.069
 S           0.71482018668554    2.20988834806938    0.39374876458234
O          -0.43113765251484    1.83284111937172   -0.39406184848257
O           0.55611241692194    3.26038677652060    1.33125870267798
O           1.19086744038998    0.89638490135559    1.14361758932569
O           1.90463542385639    2.45004666409987   -0.53223794416233
H           1.83451954389943    1.70076674590996   -1.26869586031935
H           0.60363337256807    0.76366163369962    1.94604508136585
O          -1.63254697184456   -1.55036995569716    1.57393080976673
H          -2.43092622249508   -1.96332910595404    1.90533793409497
O           0.76938534322269   -1.66758664837071    0.14389329510809
H           0.01955529634977   -1.86781609687998    0.72435326901068
H           1.06585543036391   -0.78422398643482    0.41640280897415
O          -0.56560177527346   -1.47963621082303   -2.16479009238200
H          -0.01782126186749   -1.61965005212233   -1.35627264331277
H          -0.81933489373872   -2.34872879645040   -2.47732242656718
O          -0.37140616203162    0.24639150429029    3.08368374236506
H          -0.90387211262938   -0.42540505323612    2.59518938688722
H           0.10625739654952   -0.21765762463146    3.77418667068487
O          -2.26161560412227   -0.11002947613804   -0.47656456972917
H          -1.92438842040258   -0.97445597348457    0.79752442016317
H          -1.75068060415954    0.71731439199968   -0.39145878513639
H          -1.84330518157787   -0.56761861029606   -1.22774521718791
N           1.60910200806772    0.57489629142563   -2.22526175053258
H           2.05486943097340   -0.27845860244741   -1.91220207043147
H           1.91752476908827    0.77976142766475   -3.16651763508985
H           0.60549878371815    0.42262636854710   -2.23604163168587
