    26
        -50.45283520  Gyration_radius:  2.46198227075 Dipole_moment: 8.012
 S          -1.22958684808820   -0.45702300437510   -2.03902566260783
O          -1.77715501086202   -0.02821320519129   -0.71977090296499
O          -2.21761490224176   -0.87837722947308   -2.96674010557345
O          -0.30529035357823    0.57180909762264   -2.52155716479921
O          -0.31149006745727   -1.70674174193319   -1.68802108021626
H          -0.17521159187467   -1.75482276512855   -0.72065482092318
H           0.09105998606073    1.94443924222525   -1.27104787957239
O           0.18050385948708   -1.97532455179839    0.94586124435448
H           0.11039314376123   -2.90911284664906    1.14765611806653
O           0.07973663780617    1.43204400120721    2.60940914924686
H           0.23274706082635    1.47672286205748    3.55428871041260
H           0.87095790989376    1.03674902441068    2.21524686044557
O           2.13679252605334   -0.14729861040650   -1.88157085704184
H           2.21734428509928   -1.06287380694934   -2.15552479455309
H           1.25476611638556    0.13785207792686   -2.22159284691210
O           1.80772687272729    0.20975840753146    0.71779402942475
H           1.36246448329026   -0.63762909656472    0.89036229197177
H           2.15744697111033    0.10456865966324   -0.20013089345493
O          -1.77007933228026   -0.56451134052890    1.90713639056624
H          -0.59694472592419   -1.52226402866426    1.38881508103749
H          -1.30654298723509    0.23430009885742    2.20981632884006
H          -2.07868742729333   -0.37242223247368    1.00314459921546
N          -0.11717732997970    1.81164824405084   -0.27246074423065
H          -0.37124839110782    2.66049093176764    0.22082740407059
H           0.68805279113469    1.31794792927243    0.18928449001719
H          -0.93296370571189    1.07828386355088   -0.34154494483036
