    26
        -50.46495522  Gyration_radius:  2.44054654646 Dipole_moment: 5.152
 S           1.65462903841397    0.44541482772934    0.62951875035976
O           0.74852354516372   -0.55149348601836    1.23292563329114
O           3.03210573012076    0.06169510659947    0.70791792822648
O           1.21089531164842    0.71886881813890   -0.74839829635182
O           1.46203902868784    1.76577238308204    1.43461632778900
H           0.51073163067832    2.02550445114317    1.37219519803891
H           0.64387968585323   -0.71168601038415   -1.30789398855541
O          -1.12982099627043    2.35619934522294    1.38007424656244
H          -1.31671115601003    2.86799889761393    2.16878234097558
O          -1.21312007159486    1.61525768818407   -1.31167316472310
H          -0.26276708125485    1.38704208065750   -1.21839474969644
H          -1.40218185549200    2.15822697094419   -0.53595789290046
O          -2.33686065438849   -0.73452726613696   -1.10415869750220
H          -1.95807098089977    0.18274143032962   -1.23514555499027
H          -3.17583681668471   -0.74535062571441   -1.56560571406586
O           2.80123987536881   -2.17192275090666   -0.77386421506160
H           2.92049876873994   -1.36796846371042   -0.22937982542310
H           3.67617515891025   -2.55903633263347   -0.83736187501390
O          -1.83587146428699   -0.13532539662337    1.62519647745952
H          -1.50047371994581    1.43986161052942    1.53904785119511
H          -2.17388779241244   -0.45607006562840    0.77506139405723
H          -0.88894575439989   -0.39008133239199    1.64232165052317
N           0.20823884459864   -1.63123651503509   -1.02673646736858
H          -0.79756821831040   -1.64213211412605   -1.25903769458262
H           0.34717492412397   -1.52523203393456    0.01857601931140
H           0.77598498963649   -2.40252121693868   -1.37262567156996
