    26
        -50.46495511  Gyration_radius:  2.44095143467 Dipole_moment: 5.142
 S           0.42813221485291    1.30117857008905    1.20594935158463
O          -0.89152676623585    1.12689595611278    0.56792509062318
O           0.33219206557607    1.72346720988629    2.57103869305765
O           1.20386302205725    0.05960554093362    1.04100645929085
O           1.17093794090698    2.40643750742504    0.39667546937579
H           1.23745152780157    2.10439144706395   -0.54184097646709
H           0.10355467011487   -1.14745259390401    1.13820328906393
O           1.19692327110210    1.63952252093842   -2.14873782781477
H           1.24521597200894    2.43611099593460   -2.67985797919548
O           1.75791030442986   -0.97277780593622   -1.33081835509089
H           1.70575020272699   -0.63232049924649   -0.41144219083737
H           1.84085394912290   -0.17751682239422   -1.87207395109618
O          -0.97907879774031   -0.44861532299755    3.46681663505870
H          -1.11284954982113   -0.32786039384354    4.40867720420192
H          -0.50486091609072    0.35573248930179    3.17473021798940
O          -0.60071746677395   -2.06174329535935   -1.61648703289493
H           0.33054254616568   -1.70179479378885   -1.54726257634453
H          -0.56814496201114   -2.76319041095282   -2.26749458047166
O          -1.21775162947999    0.68004605152227   -2.02023592105685
H          -1.25963098444629    0.94405190133733   -1.07659391474291
H           0.25588714028001    1.30538095039526   -2.21931219746604
H          -1.17784605871565   -0.28858370146673   -2.01532566446939
N          -0.90958409884436   -1.40129319753772    0.98331470530747
H          -1.26574637867668   -0.41654614926807    0.82102318749730
H          -1.30737734088116   -1.77309846714671    1.84384944684707
H          -1.01409986743653   -1.97002768710314    0.12827341802492
