    26
        -50.46495540  Gyration_radius:  2.44065469774 Dipole_moment: 5.151
 S           1.09664084459243    1.26972603476937   -0.71884153131290
O          -0.07219559003585    0.66709585860159   -1.38952943126270
O           1.25462429182013    2.66013539343539   -1.02313942745176
O           1.00452323968276    1.00382146934245    0.72720032490533
O           2.35062110452197    0.50406745786448   -1.23825908889231
H           2.23572579250517   -0.45323355179445   -1.02186386592069
H          -0.59544819514002    1.06315421058910    1.07312237293336
O           1.94498966976034   -2.08377285423824   -0.78338246058070
H           2.45283911880521   -2.56527331459475   -1.43849572902671
O           0.87391154628399   -1.44554485423104    1.71674671035449
H           1.40890364392106   -1.93867619982492    1.08202407828448
H           1.02164297114335   -0.50533531517505    1.47546109640825
O          -1.08691887697271    3.46165240156804    0.03198369231041
H          -0.22896725507557    3.20461684192474   -0.36160940865566
H          -1.13624634931063    4.41229505332988   -0.08337931722176
O          -1.67448637234924   -1.71991679040118    1.20858841091493
H          -2.05097982414401   -2.41168803514647    1.75326175436884
H          -0.70816495763775   -1.65965746234593    1.46256001519046
O          -0.57724521684551   -1.93122904708652   -1.40176936710198
H          -0.46508130210955   -0.97211339701801   -1.57290844673636
H           0.98614316793362   -2.14234164654061   -1.06526481566021
H          -1.10891412133624   -1.98848877957219   -0.59315943422330
N          -1.56408134519896    0.92454667293657    0.67711860954785
H          -2.11465618870458    1.77127113413382    0.80644310551588
H          -1.97089578938718    0.03839203592142    1.01629304766192
H          -1.27628401672097    0.83649668354573   -0.33920091434930
