    26
        -50.44873313  Gyration_radius:  2.50310875904 Dipole_moment: 5.035
 S           1.83707814268152   -0.85783628189213    1.32177682242868
O           1.18788667260900   -1.48414218669826    0.19208498733298
O           3.01758589531579   -1.46532570409790    1.80675152942524
O           2.07933278043878    0.63876883435516    0.93599187907205
O           0.82173322730855   -0.72892757620150    2.47603019551716
H          -0.02800146724878   -0.31726694464477    2.14438081950499
H           2.12944525357211    0.64947649739565   -0.08220162287308
O          -1.37818505633063    0.39550633580046    1.71328203784760
H          -2.08398787666365    0.17189328010524    2.32190496809516
O          -0.40825830861229    1.81906544168576   -1.64709627057645
H          -0.54942311288054    2.56988899348942   -2.22516168715515
H          -0.26215065104723    2.18969176519397   -0.73538621529405
O           1.88201710438094    0.38404432231465   -1.57170169738675
H           1.60146803678675   -0.51876137081210   -1.35343997801461
H           1.06233168936876    0.88708283761410   -1.76337134100738
O           0.04378471823434    2.57582387385618    0.83971183905123
H          -0.58098221931495    1.99992416584253    1.30971603661194
H           0.91741329292347    2.21074372406741    1.03318977912695
O          -2.20185227191516   -0.07521288401214   -0.66062036059108
H          -1.88438693829834   -0.98168868687482   -0.90723732438823
H          -1.72558431917521    0.17452794025370    0.78024392938789
H          -1.67127597820346    0.54784550272410   -1.18204059770519
N          -1.12126194115844   -2.47819625224460   -1.18384357611103
H          -0.25838968306419   -2.28803426609093   -0.67671680402330
H          -0.87139150460973   -2.73290633218108   -2.13130364568130
H          -1.55494549510423   -3.28598504895367   -0.75494370259275
