    26
        -50.46117186  Gyration_radius:  2.41695336792 Dipole_moment: 3.324
 S          -0.90928406108825   -0.27803042221194   -0.38777560881448
O          -0.75360582079439    1.16091894451645   -0.23091510438403
O          -1.89454465627521   -0.51015423634663   -1.55614797447611
O           0.37479476587062   -0.88614677061272   -0.79418502330636
O          -1.40770078528832   -0.91754994558974    0.81448967788346
O           1.50585297883213    0.80974421298706   -2.55601553215420
H           1.11482149790232    0.09202467150367   -2.02127147976758
H           0.81448245449010    1.10347583746573   -3.15109120580763
O          -0.50917883996029    2.42136467853522    2.14342829485591
H          -0.83138027875201    2.06908141879445    1.29326956891417
H           0.16432764289140    3.07050279164409    1.92640281838209
O           2.04128078204512   -0.12085084310276    0.93652370771877
H           1.47978358755195   -0.58889061956030    0.21959500752302
H           1.36459506503354   -0.10510174917340    1.79090757894307
O           0.26464927840789   -0.06438047801808    2.66459976573511
H          -0.00938222745706    0.88113340893213    2.72510152284647
H          -0.44366962128624   -0.49006607291836    2.12689076117867
O           1.71985243775437    2.10400748384567   -0.20235727987196
H           1.99333942860277    1.88687368468379   -1.11397695872803
H           0.75017450203341    1.94245461634652   -0.22670024016883
H           2.07921960047644    0.85511320234106    0.56334038471637
N          -1.80237046691043   -3.03472538570771   -1.01374316939986
H          -1.73425175488474   -2.71423399385497   -0.05144347721839
H          -2.47818005562867   -3.78578479998467   -1.06859053078065
H          -1.99751057434687   -1.51068453959231   -1.54083718507014
H          -0.89611486922944   -3.39009509493028   -1.28949830875135
