    26
        -50.44839713  Gyration_radius:  2.49857231455 Dipole_moment: 8.391
 S          -2.35784084507251    0.28840961000365   -0.50782962692437
O          -1.36369435104533    0.98652551259343   -1.35222965063024
O          -3.30461396495292   -0.48027466388812   -1.24378396684707
O          -1.45772105369076   -0.72671152091993    0.35229731423336
O          -2.87201792591966    1.17961319764224    0.52726250894660
H          -1.55439315987887    1.77008781345271    0.98517360380727
H          -1.02228279891174   -1.34720898940430   -0.27767089664809
O           0.02204104061144   -2.32859706221654   -1.15002366405288
H          -0.50803914806335   -2.83228075782813   -1.76978852243432
O           0.56441524778219   -2.10909387873783    1.60601284052033
H           0.66400538509154   -2.38531663170300    0.68268281886036
H          -0.37978265018429   -1.93742286754209    1.70328058625846
O           1.39397045866968    0.35820657323977    1.92500759309736
H           1.74219092637304    0.39712805080526    2.81696917080431
H           1.10113112377956   -0.58525155431539    1.78553720767987
O           2.44866901289965    1.07822342505435   -0.53130434229785
H           3.36781262163693    0.81967569481205   -0.61127287324562
H           2.15173304497207    0.80279826140321    0.35189684499308
O           0.79051738205628   -0.18298761177091   -2.36662985125897
H          -0.05318107017291    0.28668259824652   -2.20126395146496
H           1.44711433935250    0.30149215904334   -1.83698042290954
H           0.41658716767669   -1.56977549378971   -1.67719935853653
N          -0.51928220571556    2.02931908594915    0.79379032354274
H          -0.31494403812825    3.01476490332309    0.91744974801417
H          -0.54888638215556    1.74162154314960   -0.23318143003267
H           0.14649182299189    1.43037259345629    1.31179798646848
