    26
        -50.44839713  Gyration_radius:  2.49862503046 Dipole_moment: 8.391
 S           1.64952116573686   -0.99404580476882    1.48084529680729
O           2.03894283536085   -0.70535443401700    0.08311512352721
O           2.54404958641495   -0.46135611205775    2.45292701352161
O           0.24311426750181   -0.23267608594427    1.63259390288449
O           1.24892753686425   -2.38985017270236    1.62688944393295
H           0.36291882071762   -2.49484325754126    0.40294367269660
H           0.40798559167795    0.72946449457724    1.49645447536445
O           0.39010687595973    2.34536557118556    1.04481719059622
H           1.04703338331846    2.79899019648933    1.57535927619482
O          -2.20903198230345   -0.58701865577240   -0.74406534988453
H          -2.17673407657993    0.07926507002534   -0.00220291949623
H          -3.11747311982575   -0.88898759634756   -0.78796718017156
O          -0.49293859088372    0.47155209871739   -2.64092653954367
H          -0.93794515576997    1.10289693890781   -3.20785352942214
H          -1.15439189879171    0.13913949382206   -2.01158751150956
O          -2.13123446513661    1.10621508471939    1.25694877646703
H          -1.70862539317597    0.52277644675853    1.89841180155510
H          -1.47319528198696    1.79802370518872    1.09218437034773
O           1.55184475748051    1.59849849716159   -1.13855356105608
H           1.93984134755684    0.79688447143061   -0.73037041195453
H           0.90368908159758    1.25684301813927   -1.77850725049053
H           0.82197480393322    2.17961739592237    0.15297530154255
N           0.07910764039310   -2.15954498693250   -0.58819345538184
H          -0.82555714053846   -1.65773276792511   -0.59809172770544
H           0.11354474305273   -2.88869667054186   -1.29195931631602
H           0.88452466698785   -1.46542594846001   -0.67618690241551
