    26
        -50.45137708  Gyration_radius:  2.44195845548 Dipole_moment: 3.691
 S           0.69694310578914    0.87325617437978   -1.57291932791890
O           0.70069115797348    2.24222217374587   -1.14217989204982
O           1.31223107670474    0.55399694490292   -2.81351020022663
O           1.35796584828086    0.01091796331209   -0.46785068946729
O          -0.76666706704511    0.36872274369222   -1.63321072270070
H          -1.28135543929810    0.61209725665674   -0.80135472903035
H           1.29139906695561    0.41966516902998    0.44672301852101
O          -2.06807161964050    0.84327375324639    0.52121163094803
H          -2.97785137053469    0.55893811533469    0.41803536902657
O          -0.38999155758024    2.96045788089482    1.18253345774728
H          -0.00306307014824    2.97338365983190    0.28605667856563
H          -1.22689157217613    2.48480220454520    1.08705157851815
O           0.43136383124748   -1.99721985259858   -2.55819046143912
H          -0.42266789493184   -1.86945305403999   -2.97640869401093
H           0.91682822555513   -1.17168723709323   -2.71224246796308
O           1.22261646488179    1.06637203447366    1.89029176135390
H           2.07432226244190    1.44368518344596    2.11730756480019
H           0.60030075673497    1.84319126761326    1.74175737224340
O          -0.81914412825199   -0.88654544025891    1.91774614275314
H          -1.62028015988108    0.14941675452023    1.12038928119613
H          -0.46402164734937   -1.58993895192791    1.29664170623774
H          -0.04795505472019   -0.39351921133458    2.22149969437574
N           0.23052516100972   -2.69703758018479    0.27946227036639
H           0.26742651521865   -2.36311522596256   -0.68506690040287
H          -0.20705998136151   -3.61058720952242    0.26612410850315
H           1.19240707013756   -2.82529549669076    0.57010245006045
