    26
        -50.44726207  Gyration_radius:  2.42894281517 Dipole_moment: 3.230
 S           1.84302735796475   -0.61248399565745    0.40310255216098
O           1.63763899361053   -1.59155789564054    1.43562359278029
O           3.04240271304987   -0.66349999001991   -0.35306294913607
O           0.62972272500824   -0.70238477787167   -0.56817607747069
O           1.72510041434678    0.80226084304240    1.01214410023253
H           0.76476603229154    1.01606753788481    1.23812595917840
H          -0.07187528428525   -1.34561548315736   -0.26354138036178
O          -0.73247118071525    1.35368673670130    1.40978172658587
H          -0.82777624128668    2.22009913343905    1.80974031205158
O          -1.22390107684457   -2.32488983761677    0.26077774493805
H          -0.84551575300549   -3.20488769047174    0.31200879777383
H          -1.21874942812688   -1.96435947633022    1.19718053088604
O          -2.44823854600403   -0.55656794829569   -1.59514318952932
H          -2.08510703082105   -1.26614487849467   -1.04801688769271
H          -3.34283405785140   -0.39979046712990   -1.28738650552549
O          -0.77061967916094   -1.19690715150237    2.53869917341311
H          -0.90472067633722   -0.25839202236691    2.33924661157578
H           0.18034634140817   -1.37161102832532    2.39548847001461
O          -0.93480859469434    1.69592236328855   -1.09038477709455
H          -0.00023073060187    1.62983830024429   -1.40858391568739
H          -1.39739934206042    0.90981739366796   -1.43480916731643
H          -0.88963390020801    1.49281218350305    0.39919928721498
N           1.69827417599460    1.59783209607159   -1.85742584787940
H           2.19594067471505    2.43153040458573   -1.56872254604157
H           1.81900952891259    1.50223025592865   -2.85873505300365
H           2.15765257467168    0.80699537454735   -1.41713057203991
