    26
        -50.44073482  Gyration_radius:  2.44979310652 Dipole_moment: 6.003
 S           0.86761109877254    0.84895223846480   -1.62992724074289
O           1.46368681878111   -0.42720728436909   -1.87904177933516
O          -0.05465618374107    1.34110324719419   -2.59626197242306
O           0.17786759280621    0.82927974757983   -0.22409038384652
O           1.98239086651826    1.88549288150574   -1.35653961422810
H           2.45035445094329    1.49588194463087   -0.56570965296601
H          -0.81760132953413    0.83362486220911   -0.22816623447253
O           0.97873217095481   -0.96807740763102    1.81654201641315
H           1.34905000341959   -1.65547877057557    2.37403759498412
O          -2.37688608331696    0.94934564743552    0.25025596714409
H          -2.64180458420179    1.86803337349339    0.32650999858797
H          -2.14206524690658    0.63894983405503    1.15797246710145
O           2.82634605127922    0.80502474995387    0.85312432377659
H           2.81180832996609    1.49056046482450    1.52454208186152
H           2.13703066305795    0.15306838281146    1.11143060634714
O          -1.28859869071907    0.30508789682637    2.59003339123350
H          -0.50115744494059   -0.19866858680122    2.29040604816633
H          -0.94905099317587    1.06709810263289    3.06201335654132
O           0.27576454175722   -2.22776342832526   -0.32105867377836
H          -0.59560687148820   -1.98736225654440   -0.70494964963432
H           0.89755287894661   -1.79403556134363   -0.93146414846677
H           0.65975223044065   -1.44528733666567    0.98563867706623
N          -1.72036473545204   -1.11028800726526   -1.81277568313807
H          -2.23137934087092   -1.67361909556103   -2.48129461464488
H          -1.16198176068782   -0.44340113956772   -2.33618198447052
H          -2.39679445257977   -0.58031450897618   -1.27504490704829
