    26
        -50.46934070  Gyration_radius:  2.48068014745 Dipole_moment: 4.120
 S          -0.03003958219067    0.08797233430843   -0.88668486487173
O          -1.43702226472280   -0.03408354648446   -0.55705611045385
O           0.76062917010944    0.31070933221160    0.33892163316517
O           0.47901241731239   -1.05169401092452   -1.62760819939520
O           0.12993612886906    1.36828579282152   -1.75219737483117
O          -0.68768491695012   -2.84640153907763   -0.07314139398410
H          -1.58026981970932   -2.84277933199862   -0.42735737471060
H          -0.16755781632211   -2.29352924830757   -0.69918634120186
O           3.28389320292989    0.84252856686182   -0.30667160064425
H           2.38790910369919    0.60072129140367    0.00981581069263
H           3.46338052953264    1.71793382261984    0.04085311457051
O          -2.81389228614121    0.06571221344980    1.79966700947996
H          -2.69344193850367   -0.06242353586436    0.84354015765381
H          -2.64256447350517    1.00916739059304    1.92014418801428
O          -1.51032702374869    2.32814734774953    0.78216613257015
H          -1.42198265266185    1.56889847235208    0.18373809886501
H          -1.07439126470265    3.05766373425379    0.34054820159287
O           2.31779848672888    0.56493072241682   -2.80336843485922
H           2.90444266829163    0.67243625732925   -2.02537233766803
H           1.93266240924816   -0.31903213632403   -2.70892422582627
H           0.97963912406042    1.22469534028561   -2.27469794517386
N          -0.51060205738616   -1.20771818313472    2.01914591838293
H          -0.10038188614767   -1.49410146482887    2.90116907649514
H          -1.45811160232656   -0.73981485116644    2.12974734020062
H           0.10131202950125   -0.51856796721937    1.49191036427236
H          -0.61234566525239   -2.00965683331523    1.34089914765990
