    26
        -50.46934069  Gyration_radius:  2.48072779485 Dipole_moment: 4.120
 S           0.03168916132487   -0.60645705657622    0.65294790330478
O           0.85869658133086   -1.22757342831476   -0.36362017407552
O           0.78524736844491   -0.19819186636803    1.82444882536457
O          -0.70403089590768    0.53670078218377    0.07953440595302
O          -1.03819838081202   -1.65044145515573    1.07635350246183
O          -1.21197191571288   -1.57853927138256   -2.08658316934744
H          -2.01284648336836   -1.92518185119730   -1.69200871841982
H          -0.56457671101493   -1.52843662508040   -1.36495135685398
O           2.75836513027046    0.88461054641639    0.43422614860063
H           3.27228448942510    0.10548077488486    0.20833117163966
H           2.07869136146813    0.56125242237187    1.06796008903279
O           1.28054361407716   -0.68923641324268   -3.00789333725134
H           0.38702448313407   -0.95871445866868   -3.25890767220435
H           1.41906277319530   -1.14061106895822   -2.15808527641732
O          -2.44292687036692    1.46817495928338    1.86141444903585
H          -1.78991053817691    1.21635808449152    1.17469657845124
H          -3.30684689058898    1.37664440873111    1.45572074387743
O          -1.43926429907536   -0.54090723059060    3.34462501624773
H          -0.50187713301138   -0.30196247117059    3.29122514610570
H          -1.92343609652798    0.25419522319856    3.03741217482269
H          -1.32331526164949   -1.37025073405766    2.00146272355843
N           1.08180263697052    1.49876191842161   -1.54221521376099
H           0.22877772803725    1.22868911595205   -0.97059494924732
H           1.87558657282658    1.40133512763010   -0.85383147199398
H           1.19006227816610    0.74895248376268   -2.28721108697790
H           1.01136729754889    2.43534808343070   -1.92445643190413
