    26
        -50.46455197  Gyration_radius:  2.48431014689 Dipole_moment: 2.469
 S           0.25380884030849   -0.79514385359998    1.80886417718837
O          -0.25495801945555   -1.24101265165610    3.06877251075104
O          -0.14116170586374   -1.59035053766465    0.66231094674436
O           0.10863639983902    0.63722706435200    1.55916026736657
O           1.86762152213515   -0.99784673696128    1.90062034429694
H           1.99442004013928   -1.28620288759207    2.79984862027517
H           0.57681018117392    1.54882747929905    0.34032939591990
O           0.92162207701641    2.09677359844619   -0.41102222068517
H           0.94627006634826    2.99879194365270   -0.08881272119486
O          -2.45464229513437   -0.08725280913014    1.69431992873810
H          -1.59048728266803    0.35242678064076    1.72881288656198
H          -2.34459088689924   -0.86975604278377    2.24093537023907
O           2.81958041821364    0.10250701395894   -0.54023755988883
H           2.36208688087481    0.96212383361552   -0.54772522517075
H           2.66867356641206   -0.26688568686892    0.34057619919032
O          -2.82780984920843    0.13211520186698   -0.98522022232863
H          -2.65981821237577   -0.06373465705512   -0.04133071311447
H          -3.67511651072947    0.57919166447389   -1.01119217979958
O          -0.67202250437728    0.96772485998779   -2.36074414559304
H          -1.50852845289876    0.71911525856854   -1.91220135206352
H          -0.19725997972544    1.55720451500136   -1.74909309385246
H           0.17280798957109   -0.31699061153058   -2.13284370278112
N           0.76864217610766   -1.11391824505151   -1.72912398163977
H           1.71245319582263   -0.73136964321602   -1.47535712203971
H           0.82542914607384   -1.90716573556560   -2.35654926450805
H           0.32753320931413   -1.38639911520117   -0.80309714257601
