    26
        -50.45400614  Gyration_radius:  2.46728902308 Dipole_moment: 2.268
 S           0.20464584656267   -1.42780792276048    0.36092251414235
O          -1.12076823754799   -1.09885991536013   -0.09578722908345
O           1.14448480030086   -1.71018073434373   -0.67899901143949
O           0.72937447097434   -0.28316285967023    1.25516663676746
O           0.16111789897481   -2.59795193134978    1.34190515005406
H          -0.34362154529966   -2.24619761452820    2.14900669082632
H           0.37424560125220    0.64719765793334    0.99327939644808
O          -0.12487630755066    2.01654578026477    0.66747693845319
H           0.46108414769181    2.65704995988951    1.07717833176159
O          -0.99804690140403   -1.40377218161798    3.27356670165113
H          -1.56925705700555   -0.72336119444504    2.83392721277223
H          -0.28413963000659   -0.92135869056058    3.69768989895708
O           2.70786310711602    0.40528601648583   -1.22868767467851
H           2.19128693494367   -0.39154048512755   -1.00226977910352
H           3.39154344924241    0.11719830420067   -1.83581039136608
O          -2.23289527566185    0.41502516868555    1.79081187358206
H          -2.09083917958002   -0.14011495714582    1.00313468314716
H          -1.76553443960202    1.23610701662171    1.59609759813740
O           0.59047643932511    2.02169162995839   -1.76796681512800
H           1.46132243915267    1.59803113738685   -1.64632081938793
H           0.05031861424290    1.33862642324822   -2.23903957719400
H           0.07743377701137    2.07201672159149   -0.33814268357039
N          -0.65459610436733   -0.13515253151576   -2.77766177400081
H           0.04768555685479   -0.77774845592261   -3.12383240422824
H          -1.43753820904111   -0.15672100742193   -3.41929227347497
H          -0.97077021665315   -0.51084532450115   -1.88635318402794
