    26
        -50.46934069  Gyration_radius:  2.48074924527 Dipole_moment: 4.121
 S          -0.65469941916851    0.38531537465818    0.46713169020452
O          -0.68040316101375    0.03767441295647    1.87618468953757
O          -2.08980821937847    0.77035284383618    0.01329123651425
O           0.20475636180046    1.51740057450990    0.17924501098285
O          -0.25521965043813   -0.77570473685056   -0.35101257948070
O           1.94083835469922    0.22084621381283    2.18252036434682
H           2.04797687995107    1.17012093737436    2.28041168296258
H           0.96780235810772    0.07561124098132    2.19853741831258
O          -0.26552592033496    1.42192678448391   -2.49453671622601
H          -1.18396813657489    1.30674357985503   -2.74039848559666
H          -0.25636633770335    1.45897200031378   -1.52451335540403
O          -2.02224690711839   -2.73804939518710   -0.04543548314417
H          -2.38129265304189   -2.90457507647404   -0.91875392532149
H          -1.30248177696772   -2.08313732911985   -0.16563993093349
O           2.32030746567924    1.86903407428256   -1.51214789993026
H           1.68890869360008    2.11175841589708   -0.81392931838028
H           1.76580143107026    1.80959653108992   -2.30144790686256
O          -3.19843959879005   -0.93160063747474    1.56610536398384
H          -2.44661742792536   -0.75222330139929    2.15024869400436
H          -2.70107908659633    0.17920704415927    0.55413631408839
H          -2.95789213954297   -1.75081821967038    1.08443267411728
N           2.32750613149601   -0.50322744954876   -0.35137557838128
H           2.38326384942428   -0.26937406885421    0.67607293427423
H           2.94765793824880   -1.26214011693560   -0.61161476559936
H           1.30413968019458   -0.74988383902493   -0.49010282273286
H           2.49708127031210    0.38617414232516   -0.90740930532158
