    26
        -50.46873377  Gyration_radius:  2.55131935513 Dipole_moment: 1.249
 S           1.91579376043841   -0.04729079441664   -1.03442918812468
O           0.86055350509831   -1.06442183120685   -1.01251762527241
O           3.16630568528504   -0.54839943989167   -0.51659506562208
O           2.15140870909425    0.29953422689001   -2.56523808459309
O           1.47260793130604    1.18314029767020   -0.41149151190237
H          -0.03783975594080    1.70738708670453   -0.56975338399896
H           2.66679012435416   -0.43402656124597   -2.88723765230077
O          -0.98125105666278    2.00331349721035   -0.63232901781964
H          -0.95241245240668    2.94268418146368   -0.81820139885645
O          -3.08732352003076   -1.26104887410764    0.18739170384554
H          -2.56389059834487   -1.05262889561164   -0.62728992340513
H          -4.00275414067712   -1.30396161063063   -0.08983180292357
O          -1.61730165993462   -0.41326274834209   -1.85202133741696
H          -0.72196263299574   -0.75906408931669   -1.68302400191330
H          -1.56334563244490    0.52681273306242   -1.62221455347352
O           2.59910678977269    0.17901836867381    1.95430208923816
H           2.99155338075434   -0.16208606670797    1.12100369091117
H           2.44146007388483    1.11071937600218    1.77496415176338
O          -1.83211426905687    0.63814469700371    1.58487365587713
H          -0.59765792693046   -0.28845271684340    1.65659281260027
H          -1.61370590445643    1.25463620645646    0.86129708969196
H          -2.45447230354750   -0.01144826258337    1.19060137572317
N           0.22824089431158   -0.97330873339594    1.54825908627434
H           1.12293464937297   -0.54156400851578    1.90035350506053
H           0.38317397184586   -1.13652170481583    0.52095198923588
H           0.02610237793797   -1.84790433358596    2.02158338739764
