    26
        -50.46358810  Gyration_radius:  2.40457791399 Dipole_moment: 8.803
 S           0.20943624809012    0.25885997805943    1.86811698941605
O          -1.13629530405275   -0.07083979304208    1.36159360190024
O           0.20333153430306    1.12426373604867    2.99561410907230
O           0.83236437169277   -1.13144427196625    2.28918474635045
O           1.05765746156528    0.72001945765477    0.75931266698989
H           1.45372792028402    0.21568339664037   -0.64070025789370
H           0.95698975653309   -1.61698903863696    1.45699497793263
O           1.72005665249406   -0.22139183520981   -1.50165349258286
H           2.55271240861651    0.18243093155938   -1.75077980722030
O           0.12578924050899    3.21426913309229    1.05185549052855
H          -0.10195825759739    3.17675421101641    1.98524991491955
H           0.65612142307338    2.41317505307725    0.91083707303980
O           1.23614237430534   -2.44798071843310   -0.11094977766385
H           2.00159914532998   -3.01325692597912    0.00630673083171
H           1.51245489429413   -1.70581739140926   -0.69810695143425
O          -1.68786077314511    1.84717710944776   -0.46989085763815
H          -1.65792538005207    1.20396407713855    0.25986522418852
H          -1.13857991067362    2.58481975172316   -0.15016389090148
O          -0.88313499749210    0.20368255478554   -2.36594899780015
H           0.08472200497677    0.21757722654861   -2.29657766205026
H          -1.22961277298319   -0.95523209899365   -1.46847349722274
H          -1.20995505036861    0.94537962911032   -1.79067450466483
N          -1.37274886296578   -1.65652101343174   -0.64346951687794
H          -2.26624094233697   -2.13139089742897   -0.70277200217751
H          -1.32524487958929   -1.03979372982766    0.24245356780469
H          -0.59354829480700   -2.31739854155079   -0.59722387687597
