    26
        -50.45852412  Gyration_radius:  2.50909550939 Dipole_moment: 1.941
 S          -0.19219090404810    1.21223463823448    0.70990049344935
O          -0.73870008451920    2.45704653024459    1.44716419013963
O          -0.03430815000522    0.15691736946058    1.69892070002922
O          -1.18838390279650    0.83235641590237   -0.30529657083550
O           1.07451482081541    1.55144544782185    0.07582042234952
O          -1.43543816788827   -2.92266031683430   -0.84945998803182
H          -1.23661272461096   -2.78033385664001    0.11801722029203
H          -2.39096290091338   -2.92365358641993   -0.92817280790338
O           1.96902372918782   -1.55121582544541    1.45087428832099
H           1.27911670809153   -0.86974343774445    1.61912663686802
H           2.73926441642455   -1.27847550478427    1.95156914462391
O           1.95838049082365   -0.62653164877708   -1.08049960016539
H           2.07648658556908   -1.17986734312725   -0.28042037738670
H           1.79588416414001    0.27871918957770   -0.72225567340241
O          -0.87344098779906   -2.38634996959245    1.64370214751005
H          -0.78055534655306   -1.41641446855895    1.72432495578719
H           0.00765842881654   -2.73048063793782    1.82353426563900
O          -0.38516311369874   -0.86982424524230   -1.91384581079412
H          -0.79037093302651   -1.74790761950177   -1.55850948559838
H          -0.77880815991943   -0.11352891573829   -1.28843325724868
H           0.64395275546542   -0.86327149693062   -1.66938508968977
N          -0.56125024136694    3.67743779128068   -0.84076632762274
H           0.31199452609804    3.16422796896552   -0.91886711158694
H          -1.25020412952121    3.19696639331319   -1.40532087267637
H          -0.78631724809962    3.11996069400688    0.70310084445004
H          -0.43356963069979    4.61294643447706   -1.20482233653140
