    26
        -50.44238268  Gyration_radius:  2.57181177563 Dipole_moment: 6.705
 S           1.73008178031943    0.10332651923733   -1.76109135278744
O           0.28968621306775    0.21483086487945   -1.80452501583212
O           2.38756323128684   -0.23720274152444   -2.96658947003761
O           2.28923314572330    1.41274065243133   -1.14745967173790
O           2.10802373706135   -0.96220006431908   -0.69481562089013
H           1.65013618177566   -0.74451656188601    0.16396250523581
H           1.50552447624049    2.03560600945510   -0.99906927590339
O           0.91923118558262   -0.47674654365622    1.56459527902579
H           1.40713957900637   -0.95046196410858    2.24068072371583
O          -0.26273904608311    1.92425345881905    1.82415633082571
H           0.19833464862376    2.47684338990038    2.45703669582206
H           0.23316603559803    1.07863834265685    1.76336422875767
O           0.09096024378095    2.65526359351145   -0.79495208657225
H          -0.29413705224164    1.90189981010013   -1.27242168343454
H          -0.13033481630212    2.51535654746774    0.14481826421259
O          -2.63247045284484    0.62463199739226    1.01725228349499
H          -3.40901455447429    0.89193741450432    1.51044822805628
H          -1.90745740165641    1.20381225851441    1.29281821676269
O          -1.22803822938391   -1.73585202312442    1.15668854216651
H          -1.07717974622160   -2.10609886634414    0.24519556594067
H           0.04155851852540   -1.01502205245094    1.41935371679650
H          -1.86696422103065   -1.00942920994930    1.04218838747916
N          -0.61215063753042   -2.45736110453130   -1.34098124252808
H          -1.27717117822691   -2.84988165100147   -1.99558394373506
H           0.24764035282503   -2.98658607375415   -1.41964174426989
H          -0.40062199343154   -1.50778202222148   -1.64542783056709
