    26
        -50.44736363  Gyration_radius:  2.46621114409 Dipole_moment: 4.765
 S          -0.39725106992206    1.73229256586783   -0.78341132515816
O          -0.77414167726126    0.88434496289872    0.31058093243791
O           0.40469913417094    2.86161117268213   -0.45595293344459
O           0.32484752778777    0.84979632623670   -1.84801625814950
O          -1.65279747070780    2.18917691940451   -1.55084569306208
H          -2.11268559446724    1.33362007326970   -1.76472029208883
H           0.70072999305568    0.01614563957248   -1.41823950057753
O           1.25062264083149   -1.30268745884031   -0.82531695948904
H           2.09809717376832   -1.52373521681507   -1.21484076543935
O          -2.36602351824914   -0.23589408681508   -2.13331527650221
H          -1.73448365304077   -0.37200790210110   -2.84449383740194
H          -2.13064485132098   -0.87653183966303   -1.43377085150349
O          -1.30056384517901   -2.24709458743370   -0.58936773927311
H          -1.34140562619290   -3.16420281498454   -0.86582860433165
H          -0.36920177998293   -1.96593563652474   -0.66006281281759
O          -1.00262758168950   -1.15555311067625    2.06395584907382
H          -1.05749440451863   -0.28486616400579    1.64106737198901
H          -1.32630679970259   -1.75965276452671    1.38489454242580
O           1.63769458937239   -0.92197915435711    1.62133331824241
H           1.77146956422045    0.05603239850344    1.73212643063495
H           0.73364055973912   -1.09369396236545    1.96944779596842
H           1.43584787673352   -1.13988662992517    0.19381172329666
N           1.83231629365747    1.75227837520633    1.84622723454633
H           1.34555049736226    2.14621626280852    1.04347285858091
H           2.73234662766885    2.21205353984190    1.91407483295842
H           1.29776536392373    2.01015309266199    2.66718996908850
