    26
        -50.44693496  Gyration_radius:  2.45680971556 Dipole_moment: 3.703
 S          -2.11648849272569   -0.72018343294367    0.72357988310225
O          -1.44575584093304   -0.50981680986994   -0.54303356090540
O          -3.19954087841280   -1.63153852538409    0.71144527546033
O          -1.03018668497057   -1.15287858624580    1.75937671539642
O          -2.54927853468284    0.63659754489921    1.29054285717893
H          -1.70021156235427    1.18551725165664    1.29499703156528
H          -0.29081687360764   -1.67187542519465    1.34177567896528
O           1.03095860308151   -2.36269101716821    0.74015448996521
H           1.03395316070078   -3.31809909933907    0.81343287268948
O           1.84532970203019    0.17316328295846    1.45905788522042
H           1.65164224135499   -0.76439904426993    1.29044603059958
H           2.22811260409191    0.22529305428246    2.33627320752421
O          -0.31087866067631    1.85051041058596    1.10029584813370
H          -0.26975956992845    2.04047724379431    0.14760849321594
H           0.41964657456145    1.23311704536685    1.29191316703895
O           1.96654963945950    0.77706711147418   -1.30954927521643
H           2.13225468079188    0.71459187441218   -0.36004025983774
H           1.20946616494996    1.36974712612382   -1.42116218552908
O           0.74428323853794   -1.60125226967827   -1.67574838644325
H           1.30715357267434   -0.79655616012810   -1.71586748416966
H           0.97986680803803   -2.14469201010790   -0.25442330308348
H          -0.15468088815779   -1.27059189547300   -1.50468207842641
N          -0.64281568163285    1.98590174064698   -1.71118650547143
H          -0.39628937058058    1.96974710066699   -2.69524510704717
H          -1.36100479510468    2.69503110704257   -1.60977502775565
H          -1.08150914679089    1.08781239167195   -1.50018629208100
