    26
        -50.44238258  Gyration_radius:  2.57197875279 Dipole_moment: 6.710
 S          -1.41681026831607    0.56054704893920    1.94615793471254
O          -1.28555871450564   -0.64119319920434    1.15393136559370
O          -2.60838653354042    0.71382697475112    2.69309878728441
O          -0.15513526719229    0.68061927768512    2.83923149964493
O          -1.28484072872291    1.78787721650547    1.00204364075874
H          -0.45096711922908    1.69890878207212    0.46235476367795
H           0.40298033813938   -0.14973425360326    2.68688899776140
O           0.85312814424369    1.60428745204234   -0.46402215156684
H           1.04825966114463    2.48844680760838   -0.77984823733601
O           2.64042469464707   -0.28421425427301    0.22000357667086
H           3.44704252654792    0.10248115506389    0.56395180490810
H           2.02957218015142    0.45682392797588    0.01391842575902
O           1.35704852507751   -1.91187782661601   -1.69258581157522
H           1.88579172934830   -1.48276951829884   -1.00458833202164
H           1.95995914672664   -2.42614497661882   -2.23091092988701
O           1.04374492494577   -1.45131736221006    2.11951112627662
H           1.69927228900976   -1.16189708354682    1.45749702344735
H           0.22568906737928   -1.62290703218494    1.62426565514208
O          -0.11078971160662    0.30367745242640   -2.39824346299558
H           0.46096175400210    1.09237052086588   -1.27976977063818
H           0.29934488118340   -0.57134126068749   -2.27463881767310
H          -1.06013353098207    0.19651293563805   -2.11895242690744
N          -2.54149838107534    0.03845464341941   -1.32188915895873
H          -2.19618352554270   -0.34938851742969   -0.44470299313393
H          -3.25169961802929   -0.58898251151514   -1.67796312851060
H          -2.99121648380437    0.91693357118447   -1.09473938042745
