    26
        -50.46763208  Gyration_radius:  2.56614071773 Dipole_moment: 7.076
 S           0.47096892791487   -0.60759253322723    0.35208002526684
O           0.85733388586389   -1.62384782205437   -0.60471932411035
O           1.15634030197106    0.65996900139182    0.09973238834634
O          -0.99372334912488   -0.38706526494428    0.30088471945120
O           0.82589767187748   -1.10770980343293    1.75207812451703
O           1.09956953466694    0.50884826754004   -2.49783036449693
H           1.18016468765294    0.70356291848369   -1.53130106397227
H           1.69280181863015   -0.23485411788139   -2.63278990575133
O           1.95741698502301    2.48638556575327    1.86830493724348
H           1.79115778934058    1.83231448332347    1.15945349512676
H           1.48064798054019    3.27774535779318    1.61087995308406
O          -0.67505016572070   -3.07460858644734   -2.15206057630148
H          -0.11631400335702   -3.66202923154532   -2.66313328291052
H          -0.09282372437483   -2.68057350691992   -1.45871662111501
O          -1.81713309099173    1.44693900229096    2.00437847552479
H          -2.61709092548936    1.08627567800966    2.39072303693123
H          -1.53440280401763    0.80306727249263    1.31661076669465
O           0.43920026670566    0.82950165987948    3.33087854526277
H           0.68547033849841   -0.35379995082892    2.43968761484297
H           1.10714819753674    1.47532542067467    3.01376445840003
H          -0.42127538735114    1.16773257890230    3.00285684226154
N          -1.32757712722488   -0.49867463329816   -2.25286416772750
H          -2.13665646159537   -0.06672712246154   -2.68522281586541
H          -0.41193421614655   -0.03488860134787   -2.52662010371318
H          -1.34379623360209   -0.42373424901034   -1.18304232301780
H          -1.25634088720685   -1.52156180312218   -2.45401283397236
