    26
        -50.44639633  Gyration_radius:  2.51411149395 Dipole_moment: 3.607
 S           1.63270395935700   -1.13162793480328    1.24788404507086
O           1.59180237963055   -0.09331165556244    2.24109888406416
O           2.33708465838222   -2.32416535562936    1.53146519427733
O           0.15156497568191   -1.49278916235284    0.88436865540985
O           2.18138238697016   -0.54652207844969   -0.07900876403410
H           1.72781295720324    0.32583182520116   -0.28607333267496
H          -0.47983195169106   -0.80752785406519    1.24318597818056
O           0.98375317715942    1.63517367995936   -0.73408703756430
H           1.56027151117642    2.13639319650608   -1.31343761194417
O          -2.88490018977928    0.40168450670270   -0.56288242044414
H          -3.42184197879708    1.19383124402446   -0.50795212306534
H          -2.47526486654735    0.27953143202832    0.30809593488963
O          -1.49459905239643    0.27897424800836    1.83871972526056
H          -1.67137741500388    0.04179699999751    2.75087339972215
H          -0.90695735025610    1.09970519907062    1.86890613027109
O           0.24905465130895    2.17174134360599    1.85733497929932
H           0.46917857035077    2.26420503670683    0.91644367848679
H           0.90267178743998    1.53178748250933    2.19882796282520
O          -0.72855328980868    0.51268298963849   -2.23164962522047
H          -0.37176635444700   -0.40828029621028   -2.28531848371653
H          -1.56743203938658    0.43950702668018   -1.73751518464161
H           0.26094216704772    1.23138552861735   -1.34254396478516
N           0.36327194190920   -1.95727835382262   -2.04500250026358
H           0.12540906079287   -2.15006857146857   -1.07732793556733
H           1.37220645782903   -1.87351226084160   -2.08361499750889
H           0.09341385582681   -2.75914823602839   -2.60079057632400
