    26
        -50.44822814  Gyration_radius:  2.54160276755 Dipole_moment: 3.947
 S          -0.43218227280053    1.82468368992657    1.03656619283067
O          -0.05260825591281    1.40715154914319   -0.29413039172367
O          -1.78107658861828    2.22928612599855    1.19719651753111
O          -0.07875466121250    0.67121312924283    2.01830708152838
O           0.52145354377576    2.92994661573185    1.51523072271937
H           1.43198065270034    2.52278834961351    1.45670233031152
H          -0.08391673810569   -0.25655796385820    1.60653352263560
O           0.05246356237980   -1.69442292837384    1.08608839574380
H          -0.25207555059891   -2.30646946803208    1.75784918071922
O           2.68924073082679    1.51148523260467    1.41357482625623
H           2.60532414071204    0.87000743439858    0.67386725243028
H           2.64151164440252    1.00150444435814    2.22588013831828
O           1.90842040061972   -0.31633298710776   -0.43568543231115
H           1.19360570823879    0.34906703215771   -0.54947433445654
H           1.51619406872507   -0.99924010558226    0.12862445789356
O           0.77970457622389   -1.63074493786440   -2.61945185934877
H           1.36052280999359   -2.28168324759092   -3.01498093306684
H           1.31944239802093   -1.10882304418130   -1.99927696088751
O          -1.37830154616048   -2.05171555762892   -0.96644723551006
H          -0.73129775749696   -1.95693290439722   -1.68979055333936
H          -0.55155460436016   -1.85605732995646    0.26165635395571
H          -1.94954404528296   -1.24080243346460   -1.01029527501669
N          -2.63789220072320    0.31453926856331   -0.95981687130278
H          -1.77291108508097    0.84802693641168   -0.98223667278928
H          -3.11360670092385    0.60368513789142   -0.11289917921228
H          -3.20414220933491    0.61639798199080   -1.74359126390713
