    26
        -50.43956806  Gyration_radius:  2.80393326183 Dipole_moment: 9.533
 S           2.42564197024683    1.45547460256295   -1.48369029489133
O           2.22012968123709    0.07652998945697   -1.12215423023102
O           3.22234724115002    1.71385274830246   -2.62649865968316
O           1.00058152496270    2.10109464920621   -1.66107122905802
O           2.95483268141412    2.23705482424053   -0.26919691546224
H           2.33208528757749    1.96628108402832    0.46600070292192
H           0.33204624112341    1.41112525004450   -1.91250704814537
O          -0.86694191120016    0.34225862040797   -2.17278667340908
H          -0.98625293540375    0.17675717716115   -3.10887628456236
O          -1.36951936857061    1.61848734851704    0.23760022235571
H          -1.45182564247727    2.55490284648732    0.04789139908887
H          -1.33728362559505    1.17326346483065   -0.62468393292958
O          -0.52438816345426   -0.91899031492726    1.43766448447580
H          -1.09025068706818   -0.15615046378447    1.27457632016409
H          -1.09291906457784   -1.61164273921934    1.83660809250654
O           1.16250839612254    1.39415484281199    1.37283847989787
H           1.19706764834485    0.43433474610314    1.46247753171401
H           0.28413665503643    1.57760690208993    0.99022095693732
O           0.21764139109200   -1.67772011257238   -1.04080492668285
H           1.10576055426179   -1.28460136943481   -1.11613874242860
H          -0.03105186049777   -1.53037338980903   -0.10235757019246
H          -0.49417543038507   -0.51652315792974   -1.77243591873655
N          -2.16051045145922   -2.91574918143529    2.39558450170650
H          -1.76728661218435   -3.33058511492065    3.23123385331175
H          -2.15946202675801   -3.62103103797163    1.66869072254744
H          -3.12291149293674   -2.66981218424998    2.59181513877438
