    26
        -50.44095209  Gyration_radius:  2.55754568596 Dipole_moment: 8.007
 S           0.06715715024307    2.40936479809720   -1.19201993409874
O           0.68369999852039    1.56701458774893   -0.18807283859591
O           0.19879341993358    3.80436283647393   -1.04499090210926
O           0.58759434507723    1.95239173828426   -2.57922219409496
O          -1.44554544112373    2.04683619817699   -1.22851261256269
H          -1.57396392616428    1.06218870242228   -1.26105626454154
H           0.79940350236444    0.98022856995062   -2.50453531225449
O          -1.64763044919054   -1.34098681314355    1.14540351764374
H          -2.44865768413211   -1.49681286856651    1.64784135044693
O          -1.79404265181396   -0.54787047484526   -1.31976598090442
H          -2.66687540429084   -0.74675386114925   -1.66338659032165
H          -1.76827257584888   -0.88127084657176   -0.37407856914015
O           0.90570752994150   -0.50406344358035   -1.83582218779945
H          -0.01756962971115   -0.79807575524843   -1.82362557812998
H           1.04311562260587   -0.04554995553885   -0.98821667510759
O           2.01217514416734    0.09255471890990    2.13313627346840
H           2.12868591575206    0.75282881383918    1.44403938854467
H           1.86961479270936   -0.76193736048784    1.66756747316804
O          -0.55675974904337    0.78294212112306    2.11367407771026
H          -0.31969954253450    1.29161269454454    1.32273175624609
H          -1.21545759876102   -0.53092312701808    1.56985366628667
H           0.32360963629608    0.50282812121607    2.45302552974803
N           1.31506669141506   -2.18028608516755    0.74722551521171
H           1.68080462741913   -3.03241216440607    1.15159388871982
H           1.53322065431284   -2.18382730545322   -0.24202591113916
H           0.30582561185352   -2.19438383963485    0.84923913360774
