    26
        -50.45115281  Gyration_radius:  2.42715424626 Dipole_moment: 2.781
 S           1.20344429192479   -1.23213826511414    0.52270377879617
O           0.32323820517403   -2.34713814068045    0.66217020702501
O           2.61097118147252   -1.44100421047374    0.55168501159360
O           0.82272103772798   -0.48850621232432   -0.78937267012270
O           0.87618579234409   -0.17869473772451    1.62182676081760
H          -0.12711866289904   -0.04493286263347    1.70261249613690
H           1.69208342093427    0.07540132793605   -0.99066012073514
O          -1.64549731223428    0.19974912350663    1.75686758960831
H          -1.98889358582688    0.05837146692721    2.64086104459612
O           1.81312019830724    2.39216842396771    0.82449123708400
H           1.69551912079381    1.74647635420871    1.53008270065042
H           0.93141819330802    2.48869755961757    0.41217208439999
O           2.93443947038370    0.79288012711349   -0.93288164024384
H           3.39864640128947    0.13047225074417   -0.39966264362939
H           2.68706378847041    1.53910931335803   -0.32179896011126
O          -0.65249272350589    1.89187817443044   -0.25412084434763
H          -1.22219269154408    1.60151407520914    0.46929043693881
H          -0.31533074649448    1.08364294212021   -0.66049721255533
O          -2.28394384502558   -1.77004585534627    0.28441062145170
H          -2.28048219989296   -1.42667667188672   -0.64094917101053
H          -1.42966124644983   -2.22536650603553    0.39382252540373
H          -2.00482762740519   -0.56706969229367    1.18389501538790
N          -1.87288466476122   -0.67556625307289   -2.16967680023893
H          -2.10241595893015    0.30663310552525   -2.26084633314826
H          -2.20071310318052   -1.15129527565825   -3.00034014020107
H          -0.86239673390004   -0.75855956139954   -2.13608497366490
