    26
        -50.44477125  Gyration_radius:  2.61783472156 Dipole_moment: 8.906
 S          -1.84843891000825    2.31898487441395   -0.36744413313231
O          -0.72830215096139    2.12219538342891   -1.25034391066403
O          -2.89971670682014    3.15595876898531   -0.81247239562151
O          -2.41551977227081    0.88444883210751   -0.03492735042383
O          -1.34937633212812    2.78705431009556    1.01018458838350
H          -0.60893964013618    2.15142769966380    1.25484055254611
H          -1.99375301559774    0.21034190441695   -0.62700510460972
O          -1.29989697874049   -1.04997661794492   -1.42273462352097
H          -1.83673576030105   -1.31394631592394   -2.17129159227864
O          -0.97964451329371   -1.37696019402161    1.28489170178397
H          -1.06051710247669   -1.43582943257624    0.31757839932452
H          -1.83456072230847   -1.06913155828718    1.59602762185035
O           2.41300164438225    0.07105713130841   -0.14522030427555
H           3.33359092032914    0.31595920696939   -0.04824518006213
H           2.28838635799283   -0.80806926255497    0.30809049538953
O           0.41239876561186    0.99543045723125    1.49758950584748
H          -0.05648842379492    0.13949616766846    1.50977581762232
H           1.11643752366268    0.89732128180072    0.83218485330658
O           0.75397228141463    0.19239745001122   -2.32581094124011
H           0.32245179862368    1.04818611473122   -2.14632744315497
H           1.45576177845351    0.12759176062273   -1.65477437453130
H          -0.45972080118854   -0.63448944270554   -1.80973826675496
N           1.91562462067687   -2.21681573127713    1.16115668784157
H           0.93242356577700   -2.10328110943828    1.38969282824618
H           2.41857365806841   -2.34006644941921    2.03121000280764
H           2.00898794515588   -3.06928520931093    0.62311260521987
