    26
        -50.46376475  Gyration_radius:  2.54646920894 Dipole_moment: 3.185
 S          -0.80003048744112   -2.06814315838015   -0.58966267135303
O           0.42077607480509   -1.39783841412859   -1.04946838682274
O          -1.26462712767391   -3.10585702540312   -1.44870811139516
O          -0.40657840700350   -2.76941232082166    0.79665214556458
O          -1.79489868506438   -1.06576826876720   -0.21087842497824
H          -1.07259315400390   -0.45431737275829    1.10872555162681
H          -0.24173004297748   -3.66472492419958    0.52124898677189
O          -0.60530717288532   -0.08560989964748    1.89565966197260
H          -1.00493204187657   -0.51005442935177    2.65603040001582
O           1.94150657385674   -0.84700309172781    1.08623030234480
H           1.56623088996598   -1.16836723997834    0.24670062753306
H           1.15747897169699   -0.65770420695375    1.62657643280158
O          -2.60512141165898    0.74608304654728   -1.95191763249034
H          -2.44643203739255   -0.02796967238062   -1.36748832776658
H          -3.31592365168175    1.24473150058093   -1.54475268878578
O           2.84687640163357    1.60967215920242    0.70826820244671
H           2.61891876383781    0.65012715845811    0.80315741261050
H           3.55074918855347    1.77902251362128    1.33476568510511
O           0.27058275232650    2.28865032140889    0.80254760894015
H           1.24792480011350    2.21032631453293    0.86820689596427
H           0.10997162221559    1.69006456970720   -0.61755764118239
H          -0.08988201370321    1.57701186744340    1.35776085859485
N           0.01554299183445    1.15833028138410   -1.54828772406464
H           0.63706305604809    1.54460730082305   -2.25057442415297
H          -0.98215852997257    1.18418522913759   -1.85592237838083
H           0.24659267651400    0.13995773105723   -1.37731236940466
