    26
        -50.44198515  Gyration_radius:  2.67387792988 Dipole_moment: 8.585
 S          -0.05662931484207   -0.13410930853626    2.90882720110478
O          -0.39840055638806    0.80682967716776    1.86555977400106
O          -0.36933039576248    0.22859515276926    4.24105198411413
O          -0.67198992484650   -1.49524741609506    2.56646009852271
O           1.49212227534645   -0.37669106664783    2.78540393405783
H           1.72353547301935   -0.22305149796529    1.84130900228554
H          -0.40203132699187   -1.75361148595380    1.56498979732249
O           0.57021390814498    2.07322603009499   -0.69089952658286
H           0.69468795327744    2.77468810307401   -0.04917484612094
O          -1.49305080864689   -0.98911068594783   -1.99313078497513
H          -0.83385931325491   -0.42773086848194   -2.45834725942651
H          -2.16351917736414   -1.22058757545461   -2.63696568914421
O           0.19276089253078    0.79804844484862   -3.12886135630833
H          -0.27901733880271    1.45213050207737   -3.64819717697337
H           0.52073094479615    1.26697529515063   -2.34539779398173
O           2.07071748635935    0.07109820485700    0.22751490234579
H           1.46481014883406    0.79657136372016   -0.07218587068540
H           2.96496428231519    0.40484294484613    0.13421961634042
O          -1.86021436535675    1.20668172078180   -0.29779610910638
H          -0.38317767586489    1.78873449280881   -0.56212885073175
H          -1.89065844917062    0.34797126401134   -0.74834675318169
H          -1.57345708617346    1.02784834903882    0.61754661075580
N           0.07362403276772   -2.06025515038535    0.21156904533485
H           0.91044742957163   -1.50830334098344    0.05088439188671
H          -0.60668085197507   -1.81503891274792   -0.50356994975519
H           0.30340175809844   -3.04050424618752    0.11966559904064
