    26
        -50.46862843  Gyration_radius:  2.47516823479 Dipole_moment: 4.029
 S           1.95988878824364   -0.94266295434402   -0.56325504299470
O           1.28119472159916    0.09108482621822   -1.36348992181052
O           1.94750455231020   -0.60589314983330    0.83396245090040
O           1.47329692630261   -2.26846670825883   -0.88400512598687
O           3.47360096194148   -0.91863052375675   -1.04309645448607
H           3.44209032445051   -1.52162917565181   -1.77832319758492
H           0.04248341821839   -2.30470488837793   -0.14971516681518
O          -0.87427057986351   -2.27162047624801    0.21962369901067
H          -1.04387190973139   -3.14074605124870    0.58726621839821
O          -2.22589801326697    1.49917861199550   -0.48753349449413
H          -1.93467660989801    0.73060734504698   -1.06290665645189
H          -2.99699629605157    1.87792585091288   -0.90971601487685
O          -1.28987375728532   -0.50188501487666   -1.85352410247793
H          -0.32966560466315   -0.31707731466695   -1.84892843029974
H          -1.38999793417016   -1.26710802149606   -1.26675261482999
O           0.64090907692496    1.08411775009890    2.42650281890231
H           0.51182542643490    1.79509856081717    1.10619896754312
H           1.26483027032455    0.40724691951604    2.10378290032830
O          -1.64926398328784   -0.12120944953380    1.79117864184896
H          -0.23237585241285    0.62689699705095    2.43665442513491
H          -2.03413897054722    0.46234719946943    1.12336051746734
H          -1.36285859746129   -0.91759659803385    1.31194135991191
N           0.37027175520851    2.09625775475095    0.06605491165252
H           0.78728706982813    2.99870298082603   -0.12992706137004
H          -0.64683612387083    2.09233104441151   -0.13993483776088
H           0.81554092072606    1.33743448524655   -0.52541877885205
