    26
        -50.46159752  Gyration_radius:  2.69484137924 Dipole_moment: 1.148
 S           2.12825832189965   -1.45858965123009    0.88412504610694
O           2.10745683288792   -2.47799607003745   -0.13418666409152
O           2.70131533091176   -0.20432317479845    0.40854004163862
O           0.81921178564822   -1.24100663967837    1.49850420283315
O           3.06141473083164   -1.98033944845457    2.05877441357295
H           3.78251544153550   -2.40193839697295    1.60025771127227
H          -0.00161608103257    0.16255186844280    1.70438798430916
O          -0.59561792097429    0.94644637337490    1.78538059482802
H          -0.58096761300138    1.19059319820779    2.71165315560265
O          -2.69927635740624    1.79217142755370   -1.52649168329548
H          -3.51600590432579    2.28102132467833   -1.42231696140547
H          -2.77118510797672    1.00332810732517   -0.93540597546150
O          -0.46343167729116   -1.75951498763015   -0.72564535015351
H          -0.09251757705465   -1.65205030285300    0.18043191441682
H           0.02045478936547   -2.51699301519579   -1.07016257713109
O          -2.61326724093370   -0.19850288483003    0.22917007137751
H          -2.02069259773191    0.18922030041060    0.89490240149912
H          -2.10939320122013   -0.91714093523991   -0.17361546965622
O          -0.34408021869148    2.49026476707291   -0.48191099917326
H           0.46752067004829    1.35000719936536   -1.11042015801371
H          -1.22311486587807    2.38584114840863   -0.91098278772359
H          -0.44245147235385    2.13165027236940    0.41761741305145
N           0.97265865359796    0.44822471638687   -1.42610394170942
H           1.33191862072915    0.53943528003515   -2.37007203085585
H           0.31835177360397   -0.36174889780504   -1.34834317228909
H           1.76254088479128    0.25938842106170   -0.73808718954095
