    26
        -50.44900433  Gyration_radius:  2.46770615598 Dipole_moment: 4.421
 S          -1.53903927102562   -0.43555104081558   -1.28138946460506
O          -1.60265079939371    0.59514558284166   -0.27916517701246
O          -1.75841262013998   -0.01530946829754   -2.62462094087285
O          -0.16389659558902   -1.14447393064842   -1.15655546607173
O          -2.50137811704648   -1.57957607622103   -0.90972729224106
H          -2.21055764282236   -1.80218461174973    0.01622933809818
H           0.57917224650643   -0.46441566353098   -0.93632858504529
O           1.62664172279310    0.54216823002975   -0.57995290429006
H           1.49347695339167    1.03901400379010   -1.43004180048479
O          -1.37277479313262   -1.79869837607943    1.41611547496173
H          -0.41638507996173   -1.83632316605280    1.24571783015409
H          -1.51659783050500   -0.96627359044160    1.87933961900706
O           1.48087666587638   -1.61658116098874    1.22635934804377
H           1.72601261576315   -2.42628966894596    0.77495493112327
H           1.73926894102249   -0.89051929231471    0.63596773010351
O           0.22765355798498   -0.00358691635521    3.15338068948170
H           0.77015189851780   -0.64370070343662    2.66975110376589
H           0.61429042640444    0.09186979881214    4.02472492465740
O           0.23701340495608    1.91759657660562    1.15311514879650
H           0.20493117572940    1.39801788129567    1.97347520403967
H           1.21067826746418    1.13668604428482    0.10764691886716
H          -0.56636303250882    1.66348396153499    0.66616513608716
N           0.61338129864965    1.70905900148422   -2.74500512422598
H           0.30996970451915    2.64806221616603   -2.51491012134068
H          -0.22755521243297    1.13775759768074   -2.82317628935412
H           1.04209210508992    1.74462278134993   -3.66207025182487
