    26
        -50.44438658  Gyration_radius:  2.51386054098 Dipole_moment: 5.860
 S           2.22260549083528   -0.86353669301292   -0.91248615510758
O           1.84728356183179    0.43611795575897   -1.39179640719753
O           3.60393224479150   -1.14748723008944   -0.78282433143483
O           1.50050392546860   -1.07687935263659    0.47500344464107
O           1.53761415078444   -1.95638399540697   -1.75807071950634
H           0.57229935044946   -1.70765414607384   -1.81995475948739
H           1.37605091057645   -0.19194233235770    0.93503287767673
O           1.08717233831306    1.16531612549259    1.67751569870910
H           1.88349016847091    1.50336299001760    2.09002453902261
O          -1.49096748407737    0.30900603022159    2.14045584537273
H          -0.59058621227818    0.66814196319693    2.04519486901388
H          -1.70810552102464    0.34711548607129    3.07303636414106
O          -1.01581916502697   -1.49095156144090   -1.72200131746876
H          -1.14436569296285   -1.73084763843515   -0.75960041885685
H          -1.42633445333022   -2.19161079352493   -2.23275698979346
O          -1.07852979919965   -2.05455468245169    0.82611893732071
H          -1.37817288365332   -1.26319886315212    1.31261239866105
H          -0.11448861189655   -2.04633924370173    0.90491412731843
O           0.57616809500878    2.56374846137985   -0.36483481966728
H           1.12826903521845    2.01901806370865   -0.95099055351157
H          -0.35136033920176    2.26255715225078   -0.55754842162633
H           0.87835237374560    1.80090657360140    0.88831259422458
N          -1.77612863905489    1.34070399485020   -0.76132571151388
H          -2.05128239007968    1.01110275065226    0.15717760831878
H          -1.50344427437604    0.53258250412124   -1.31082181624221
H          -2.58415618929998    1.76170648094001   -1.20038688301435
