    26
        -50.44307976  Gyration_radius:  2.50800544889 Dipole_moment: 2.701
 S           2.08710371202006   -0.75718664908263   -0.53583946681080
O           1.27311658508553   -0.23258905364430   -1.58018177188848
O           3.14608649488899    0.04262928207089   -0.02276499011745
O           1.21930649375271   -1.25488448231141    0.62563612866704
O           2.73398382180540   -2.10147927401427   -1.07491145888718
H           3.56937504574096   -2.19328138668244   -0.62262262986104
H           0.26152863715829   -1.53904196914771    0.31003767304122
O          -1.11080649119436   -1.91405048764386    0.00368079366831
H          -1.33531585741918   -2.70970023347180    0.49035311569328
O          -1.82400307162210    1.72439223483812   -0.88463464708854
H          -2.53754551320923    2.24572799478537   -1.25425669040769
H          -1.65702641436320    0.98733776257735   -1.52348554752387
O          -1.30009352250806   -0.39651133375176   -2.39858457177005
H          -0.33534183261320   -0.29924491598435   -2.35614587971275
H          -1.49304313069169   -1.12655090258574   -1.79785050066507
O          -0.00637888413228    0.48805489078706    2.64186825622589
H           0.32751919413639    1.16868753153997    2.00288642597592
H           0.56211913013496   -0.27231988325867    2.49655933111878
O          -2.18206838104636    0.02297130104755    1.20111779821822
H          -1.48138586936185    0.22954648610163    1.86847953725351
H          -2.13118576849792    0.74650741878776    0.54397521120147
H          -1.61405678785932   -1.13343535126241    0.48292216368879
N           0.87393365575071    1.96738761201835    0.58501357001510
H           1.65037185334853    1.42845359737969    0.22022175199365
H           1.17876974997029    2.92820842949703    0.67874561561519
H           0.12503715087581    1.95037140134579   -0.10021918775022
