    26
        -50.47154161  Gyration_radius:  2.41293809297 Dipole_moment: 5.049
 S          -0.17268403697062    0.41947235595392   -0.85025703059030
O           0.28610544893184   -0.26987156011343   -2.16917305440119
O           0.82183497874751    1.44496693629732   -0.56787544905093
O          -1.50901486322843    0.94310931183667   -1.02264253997132
O          -0.13735298539619   -0.63292384914684    0.18168549785956
O          -2.21699583162618   -2.16591516820241   -0.50700970168096
H          -2.94631965278117   -1.88200124885399    0.04742484168184
H          -1.43172067257556   -1.67678204921919   -0.19212585527041
O           2.32914219364483   -1.53026426918464   -0.15092365684225
H           1.36733920374583   -1.38108611186561   -0.03484432126496
H           2.47859988913837   -1.47209112375617   -1.09690730492171
O           0.20410494877176    0.30354626616599    2.68985834526610
H          -0.04862889183236   -0.31611901001665    1.98356375266092
H          -0.33303248746854    1.09361956202508    2.48254000379340
O          -1.16296828243804    2.21664450807986    1.33110035527551
H          -1.45035770691666    1.76329409656218    0.51858698929066
H          -0.61833779730246    2.94484854680317    1.02431915792872
O          -2.08277817233633   -0.92108684762855   -2.88898909705630
H          -2.34116978890991   -0.08210544813755   -2.47976357274589
H          -0.55518204470984   -0.60326998567337   -2.60887834013059
H          -2.25055159138629   -1.59431492916058   -2.19683691506543
N           2.39896078484219    0.69282247710535    1.32665736748592
H           1.85350245062396    1.14536018392577    0.52525798466543
H           3.18760614992532    1.24673590768835    1.63996950925961
H           1.65132385327088    0.54691080877803    2.07778396805064
H           2.67857491423811   -0.23349936026050    0.93747908577298
