    26
        -50.44438658  Gyration_radius:  2.51388809339 Dipole_moment: 5.861
 S           1.05624626156892    0.22539492259083   -2.31353245760587
O           0.93958677164664   -1.12504146557520   -1.84182591864344
O           0.97722024671134    0.44761029202177   -3.70993770402445
O          -0.04828427986185    1.07648762951374   -1.57346117345521
O           2.33695583794600    0.87318403090521   -1.74905059360309
H           2.34432606412497    0.68547844559799   -0.76814559668145
H          -0.84091395239343    0.49627718390896   -1.36052850888520
O          -2.08353955913926   -0.37078795070425   -0.93520572788748
H          -2.65212486020215   -0.54219886442927   -1.68747585597132
O          -1.95996575212379    0.76664321893723    1.57196505912093
H          -2.79888884340882    1.15929079198735    1.81767778223649
H          -2.08893494721131    0.34493856159048    0.70351863095943
O           2.26168943199345    0.63767628098632    0.83483661260556
H           1.51242731330992    1.28635179549370    0.96947798283757
H           3.05295608170841    1.06488176067580    1.16910906725878
O           0.22887205888973    2.27306020879478    0.92105631377572
H          -0.53541857301725    1.79966405295730    1.30111268122163
H           0.09356157335969    2.23829568289600   -0.03609147348518
O          -0.83376195450011   -2.49200095148898   -0.36399140500846
H          -0.47034040069373   -2.24785003384391    0.52846863349150
H          -1.64167331959025   -1.27495242894200   -0.69494396817692
H          -0.10427823305685   -2.29954049482312   -0.97714630520206
N           0.20650363826420   -1.42129558325422    1.86258807729069
H           1.03612481513379   -0.95868822987401    1.50611815254308
H           0.46669744270411   -1.94016321420937    2.69085466403014
H          -0.45504287217530   -0.70271566163390    2.13455302128876
