    26
        -50.44438649  Gyration_radius:  2.51376261438 Dipole_moment: 5.859
 S          -0.92133978140575    0.95697675693246    2.17999255186345
O          -0.98581326582237   -0.47353142615664    2.08348848271383
O          -0.75633941763714    1.52666995858952    3.46600495268266
O           0.24319741670874    1.43798087340663    1.22892182305821
O          -2.13951583879998    1.58919413611972    1.47642827090438
H          -2.21178474332052    1.15186604897114    0.58139694933116
H           0.95186729165232    0.72765197137518    1.17019253009000
O           2.06400580580018   -0.36924972653702    0.97870083036768
H           2.64049766855891   -0.40605994338340    1.74346189352422
O           0.00080271133381    1.96003491412361   -1.49127897849411
H           0.17231631135939    2.16183145968543   -0.56093840275783
H           0.68683470255577    1.31149897895246   -1.73923106031463
O           1.96685288228133    0.07425816899749   -1.73949863859572
H           2.83469049522557    0.28117297052100   -2.08939167808030
H           2.08271692583504   -0.11675608936569   -0.79145797246921
O          -2.20505224877396    0.67297909186704   -0.95128051784705
H          -1.39100456069957    1.16411854749477   -1.26175555268549
H          -2.95405803245980    1.09290814362913   -1.37911733168507
O           0.54930116117688   -2.39216332121989    1.00691564626409
H           0.17909603068756   -2.34829199429558    0.08536552469943
H           1.50858105615502   -1.24211313426767    0.99301295583027
H          -0.12532916124576   -1.95521024596346    1.55383710368307
N          -0.45279544679698   -1.82419956174750   -1.41367862442799
H           0.27615542223167   -1.29094918204759   -1.87433771444301
H          -1.20621790476230   -1.18436365790475   -1.18494329761097
H          -0.80766549984378   -2.50625372778425   -2.07080975561096
