    26
        -50.44008914  Gyration_radius:  2.50150678657 Dipole_moment: 5.735
 S           1.95648120121646   -0.19237167727892   -1.14902245407258
O           0.79936076317804   -0.66386382250084   -1.85894979510827
O           2.88245016253874    0.59246788359359   -1.88441766089286
O           1.45574837826897    0.61637396664022    0.09976401611634
O           2.66566159050579   -1.36310095888643   -0.44636048266523
H           1.94323336985890   -1.80501472024035    0.07799606814121
H           0.83604085895852    1.33657054098748   -0.22918529227009
O          -0.16318697225722    2.44986251098095   -0.70202941075450
H           0.28919628667887    3.07778948557117   -1.26852238505651
O          -0.14752416021246    1.93086558333128    2.07013136939637
H           0.80122983616171    1.80886778485923    1.97251248436711
H          -0.44782756639907    2.29231951332329    1.22437477450020
O           0.77765841039925   -2.37108704688148    1.01875444202359
H           0.17583512945466   -1.69347593274741    1.39630805108684
H           1.17032883053335   -2.83406098390314    1.76187773078001
O          -0.90827447836653   -0.62771701736941    2.22982806722885
H          -0.65866929660925    0.32260784738988    2.14649616257965
H          -1.23683580818564   -0.73874865590948    3.12334751231601
O          -1.41495309625493    0.87413087991727   -2.27136646297220
H          -1.90732999207196    0.25642830613401   -1.68135433714007
H          -0.75572330633896    1.89478132143987   -1.31740308696812
H          -0.62664729402961    0.35409054852851   -2.49873293134157
N          -1.96083234041045   -1.15636616377857   -0.59372670332761
H          -1.87573907470014   -0.96542267877193    0.39861459937151
H          -1.04696095662372   -1.46494347363593   -0.91418441588907
H          -2.60272048525472   -1.93098303079978   -0.70474984946849
