    26
        -50.46215074  Gyration_radius:  2.51031264888 Dipole_moment: 3.334
 S           1.81072156078088    1.03991467575397   -0.49584073370254
O           1.67285678093984   -0.40877875401448   -0.61395241777374
O           1.05593981055482    1.74806177533842   -1.50720062996625
O           1.54485520249784    1.49798724865192    0.85578634015347
O           3.33534396577426    1.36048792144621   -0.78540673311004
H           3.80951019852955    0.96363411495988   -0.06018240391444
H          -0.11634507828902    1.69492994181724    0.63194229871911
O          -1.08362992453746    1.77734214691266    0.51294884755657
H          -1.20284714445075    2.57255566970700   -0.00990547869501
O          -1.87301096827611   -2.40807696632022    0.45378255506821
H          -2.37411091798712   -2.73050368449871    1.20338309953547
H          -0.94276501492949   -2.28364829290046    0.78050914282078
O           0.53490980609683   -1.88743747272125    1.36970988889364
H           1.03818357122409   -1.43613497255430    0.67153066121859
H           0.41343868544938   -1.21866222425068    2.07225536591620
O           0.17835494372833    0.32824172423121    2.91407425432788
H          -0.67018226894314    0.72834967613880    2.70534983558960
H           0.82269585121019    0.79970597504750    2.36105246713967
O          -2.35896346702584   -0.18174019368213   -0.87225874383022
H          -2.02879123463606    0.51737547581465   -0.27227794520577
H          -1.22430029045887   -0.30500600514246   -1.81662645383975
H          -2.30471387788535   -1.02713786624178   -0.36367359723335
N          -0.26464047525936   -0.31075472726108   -2.35363093893773
H           0.43581099332893   -0.80963216688831   -1.77018354985239
H           0.12543257251118    0.66300546061510   -2.31764760872534
H          -0.33375327994759   -0.68407848998017   -3.29353751214954
