    26
        -50.46044999  Gyration_radius:  2.45555707213 Dipole_moment: 6.764
 S           0.11413406171549   -0.67282001024802   -1.40620041955252
O          -1.03954200247193   -0.70411439173672   -0.50679747192917
O           0.03368778742978    0.36645117026916   -2.39158246495131
O           1.37067658165963   -0.40988949823278   -0.48196979171102
O           0.39578443739232   -2.00380421949988   -1.94944369061810
H           0.86100537230604   -2.68550311926585   -0.81116394719859
H           1.13516354196714    0.16285605667165    0.29790104028789
O           0.84696590603211    0.88147617800822    1.71230377250333
H           1.62573241940837    1.37637912860492    1.97220970987976
O          -2.78343622362028    1.27340302345742   -0.17045934965052
H          -3.48049268490513    0.86507910254441    0.34507031235078
H          -2.17223476454371    0.54996719702999   -0.42047055668291
O          -0.25802488105625   -1.67067850884330    1.76398515514649
H          -0.74952453712824   -1.33816585262737    0.97276887502338
H           0.17325369601227   -0.87356951913112    2.10655707171383
O           0.54555450486448    2.79599857809762   -1.49301610016918
H           0.39996216328115    1.88869254721876   -1.84215260602860
H           0.17456131501686    3.38395334033068   -2.15326640391098
O          -0.73921947876920    2.69576830854929    0.86724500337421
H           0.16229193167596    1.58775643096439    1.44841904757651
H          -0.25406713636036    2.88635484361390    0.03599070904875
H          -1.57802655905914    2.28848671295936    0.57034412194881
N           1.23313954187687   -3.09818900643956    0.16174878655219
H           2.21888147718951   -2.86549326816775    0.23643097650416
H           1.08981871238951   -4.10184291291429    0.21289290715957
H           0.67395481770101   -2.57855231118932    0.92265530334729
