    26
        -50.44691231  Gyration_radius:  2.45170980961 Dipole_moment: 4.875
 S           0.65392152493212    0.93955342207813   -1.40078189991252
O           0.88894447468575    1.04193832119198    0.00821221713333
O           1.63278877456958    0.24567441384893   -2.16630273494499
O          -0.74786191616923    0.24644661724997   -1.60719956554652
O           0.37170314547060    2.32312956096468   -1.98829354905924
H          -0.06414891183493    2.85987449938775   -1.24539642824288
H          -0.74909816382437   -0.69565418082879   -1.25425256943607
O          -0.96260883692773   -1.03827825320259    1.93684998888437
H          -1.20851051617188   -1.50693605317956    2.73557659127733
O          -0.85631897464476    3.50763091483168   -0.08982856167110
H          -1.23819332230743    2.72609747556356    0.38113312920029
H          -1.60118940922691    4.02314915231941   -0.40872852505536
O          -1.02300121735347   -2.05936191995599   -0.49383932246077
H          -1.00214150595398   -1.74208015968027    0.44734734165023
H          -1.92773770492818   -2.32529557550848   -0.67279844308602
O          -2.01283876095295    1.24367677758668    0.65805287440806
H          -1.76525632836102    0.89270683004778   -0.20850312852703
H          -1.62473541372099    0.62585133396665    1.29722661799357
O           1.58542666784690   -0.71404355437548    1.93392278014826
H           1.55443623117842    0.14085625847493    1.47898843096110
H           0.03945016516741   -0.89185898093215    1.99675833834166
H           1.86686123719709   -1.33348959101482    1.21706947708071
N           2.05084119073087   -2.05360256908652   -0.36910896735887
H           2.09025179174073   -1.24637923520985   -0.98772172806652
H           1.20779771641218   -2.56299819719296   -0.60805437042778
H           2.84121806242556   -2.64660730736390   -0.59032804329326
