    26
        -50.44828865  Gyration_radius:  2.56669987375 Dipole_moment: 6.190
 S           1.53385247180427    0.84167653756727   -1.11577953163452
O           1.69264921071017    0.83977462845854    0.32244971692930
O           2.55109179703834    1.44939787141677   -1.88259104128494
O           1.34490980865423   -0.62552826835052   -1.57019124445704
O           0.17320469254551    1.50618406887678   -1.44532434474340
H          -0.53039784049146    1.21818415103052   -0.79154855195626
H           0.69688199502461   -1.07918978978303   -0.93651545133740
O          -1.68611074707086    0.69628362831250    0.15176222808255
H          -2.48759797023458    1.19746266338456   -0.00635555350750
O           0.90598353366724    2.89051695937797    1.85514295862635
H           1.63832357186129    3.16470562001236    2.40911304814657
H           1.26168341622470    2.21423556733900    1.24677115412896
O           0.82282685694161   -0.88662681588369    2.25220309819113
H           1.32370938536920   -0.31113545744770    1.65055809059632
H           0.41504913632587   -1.55034424584404    1.68534981483625
O          -0.48331602924175   -1.72003242713925   -0.15584741145772
H          -0.83396160777529   -2.20658529102497   -0.93989850544781
H          -1.08660759062463   -0.97072715451027   -0.00438415170844
O          -0.97819596662826    1.08407593461829    2.55509282438968
H          -1.43522990939778    0.87171603714831    1.13691731436660
H          -0.36915606446376    0.32113438067178    2.67325143313701
H          -0.39349931489958    1.86299659540369    2.46387917193709
N          -1.04337085226492   -2.65232699553961   -2.62158661320040
H          -1.85346533804744   -2.31551065579966   -3.12701148845263
H          -0.95576775548798   -3.64513816892518   -2.79932506521336
H          -0.22348890911329   -2.19519937401978   -3.00613189875160
