    26
        -50.45840266  Gyration_radius:  2.43855056533 Dipole_moment: 7.431
 S           1.17664438721326    1.31742054869509   -0.99668044262261
O           0.30650345685875    1.52973072652422    0.17386346330141
O           1.21262889441634    2.41693482818416   -1.89854256001200
O           2.49184762635116    0.84425255146992   -0.52682815521054
O           0.54638631846934    0.10969196606774   -1.79262293047677
H           0.54164182744634   -0.71494381278270   -1.26350807628381
H           2.36570520442841   -0.10709179803173    0.48927747679419
O           0.45308696114677   -2.19875897195322   -0.41045683330457
H           0.19529895202104   -2.85770420523112   -1.05643622895460
O          -2.78592966524749   -0.17871837510019   -1.07611456355808
H          -2.29933305113594    0.63168119681500   -1.35110238729751
H          -3.70703168443388    0.07945152335484   -1.02089604247354
O          -1.57242168455065    2.15518978704665   -1.57959597784122
H          -0.98094632021570    2.33555584198984   -2.31659245705303
H          -0.96448632452585    2.07909559121348   -0.82287087801206
O           0.03814073354357    0.32049165890215    2.39451490278609
H           0.09796565310132    0.84091054556864    1.54068515518950
H          -0.09353587290729    0.96843701713308    3.08772351807287
O          -1.59689735179485   -1.46933346368127    0.94060476624658
H          -1.23487747084079   -0.80223112766302    1.54156273438289
H          -2.09010387312718   -0.98617750799546    0.23842181431094
H          -0.38181781473390   -1.98765726534866    0.12445579890322
N           2.14691445657119   -0.91042971660261    1.24570802059796
H           1.69682450919045   -1.66934276358593    0.71134514057660
H           1.44822250453900   -0.52191072502642    1.91112916239968
H           2.98956963818375   -1.22454405957882    1.71295555939164
