    26
        -50.46106747  Gyration_radius:  2.39325011774 Dipole_moment: 6.670
 S           1.12074851836129   -0.70812481770476   -0.91086663230009
O           0.39125405140892    0.29981728759702   -1.66347609597302
O           2.55800746198618   -0.64153362548753   -1.11508915825264
O           0.82679532300360   -0.62717373436391    0.52343617951066
O           0.63430360615579   -2.11179956443586   -1.39936056732059
H          -0.34261598777237   -2.12333658189945   -1.27948240127478
H          -0.51856039373305   -0.95745492375592    1.22897074760586
O          -1.39824172004140   -1.20329911606681    1.63511944873241
H          -1.19769403009172   -1.75254662440541    2.39411549098689
O          -2.25466198420425    0.68529344864253   -1.33256904762572
H          -2.55943466324205   -0.22665855579951   -1.30820562667154
H          -1.31855190500849    0.62592982786334   -1.59929312249263
O          -1.96633193891097   -2.15397492104646   -0.78981285385564
H          -2.31149651694004   -3.04782592699474   -0.74955206566788
H          -1.90080017910593   -1.82471814930449    0.13728802051263
O           0.74079627543134    2.33889071856423   -0.02727211203828
H           0.59042229090066    1.74559999241370   -0.79461622065987
H           1.93779704643724    1.73209422197667    0.49807484239850
O          -1.55264508242478    1.64826773565314    1.10616846876738
H          -0.06904970641390    2.19458086102089    0.53003615332475
H          -1.96415713434724    1.47173351956652    0.23419321278408
H          -1.54145597378019    0.78745593714880    1.54076574843890
N           2.84725893298967    1.12927728941571    0.75187416684952
H           3.69242193939111    1.68947030757303    0.79957972594913
H           2.88496364219904    0.39641633080423   -0.03110425868150
H           2.67092814774810    0.63361904302444    1.62107794695550
