    26
        -50.44222321  Gyration_radius:  2.45045746688 Dipole_moment: 3.928
 S           0.84004362421392   -1.07940480159860   -0.62396142747784
O           0.65917299887302   -0.45523219131019   -1.90073531467851
O           1.58348278811260   -0.42072298329704    0.40563633148842
O          -0.41360960416195   -1.79907370855004   -0.13764437560301
O           1.74266597839714   -2.36124964301761   -0.93854002601048
H           1.44648670012420   -2.77025878931675   -1.75006915794634
H          -0.88132791603928   -1.41680528958868    0.73632469628910
O          -1.47738863254113   -0.79463910048920    1.88236502215053
H          -0.70348305746918   -0.66362691143944    2.47748683339723
O           0.92139591361929   -0.43878570151653    2.99032344646330
H           1.37525956325274   -1.19045954163468    3.37533188470635
H           1.24777272474667   -0.36283059298605    2.07018610806600
O          -1.26485719024698    1.63922615679885   -2.52918704454500
H          -1.81099845260602    0.86755431595043   -2.75188050302110
H          -0.37013236048729    1.38438840233042   -2.77651197232863
O          -1.91748081395926   -1.05978140987634   -2.58819261039331
H          -0.97077341937963   -0.93213066384347   -2.41288778960993
H          -2.28131969874112   -1.40889063807371   -1.77178448852356
O          -0.68757470990247    0.81450049705737   -0.02587465109256
H          -0.08433755965623    1.47301449197311    0.38612692219549
H          -1.57316353137041    0.04759881052224    1.40219474400863
H          -0.97943398399827    1.21399348468608   -0.87466745087166
N           1.16151859204075    2.39163495144475    1.21930627292579
H           1.83833882997999    1.70552274824909    0.90318681351165
H           1.08443248769010    2.30062910775965    2.22463942771451
H           1.51531070962657    3.31582898991323    1.00882829916329
