    26
        -50.45650693  Gyration_radius:  2.43155483078 Dipole_moment: 7.713
 S           1.58815799524471   -0.17368774944174    1.28208426131955
O           0.35875078368385    0.61586151435215    1.41069139659086
O           1.69105076414318   -1.23731455829163    2.23172213069464
O           1.49926363239620   -0.82385840273274   -0.17382949240091
O           2.75133074738743    0.70721812639937    1.15579714469907
H           2.58555992490409    1.25895407700291   -0.13915033850101
H           0.86260576438618   -1.56461377052046   -0.03287845083112
O          -0.25519747767664   -2.51691331367490    0.74101224047594
H           0.36723000867798   -2.55754216913710    1.48133001999216
O          -0.26682947367977    1.30675278561872   -0.98357844789332
H          -0.09821189561631    1.11242843020251   -0.02050446632861
H          -0.46380715486061    0.42454867672866   -1.37491529441520
O          -1.23042355526290   -1.12331909430218   -1.65638641996748
H          -0.96273818362015   -1.82629498830866   -1.05197452169201
H          -2.13351691564445   -0.88588902653246   -1.41798222450844
O          -2.98469043000197    0.89247986244589   -0.44149773329587
H          -3.58487991762607    1.59827999211691   -0.19889988314315
H          -2.13349772386374    1.30476649756178   -0.67107659394044
O          -1.96205856277145   -0.70345781900344    1.62499447348219
H          -1.00869879080438   -1.98058007572399    1.09750183975688
H          -1.17073612999912   -0.15250799022411    1.77738380256533
H          -2.48067088538648   -0.22790383600910    0.95652306722479
N           2.33790457709323    1.58772677454406   -1.17863761571176
H           2.70794761556602    2.51213791013872   -1.37546528643617
H           1.26633093488036    1.55962693354383   -1.22810030621685
H           2.71982435840189    0.89310120328946   -1.81416329151537
