    26
        -50.43679973  Gyration_radius:  2.67538197188 Dipole_moment: 1.540
 S           1.03400894269864   -2.37782000366512    0.91289267917367
O           0.09265760749917   -2.10598582828231   -0.13982694881790
O           0.96358576472258   -3.63843039903699    1.55797716311115
O           2.47183747157697   -2.24837981451372    0.25215877895951
O           1.01195017438305   -1.24977467571488    1.92625342991519
H           1.08173817176468   -0.32277496789259    1.39948934971514
H           3.03115168983647   -2.86353164836630    0.71867980645623
O           1.16670716444952    0.88404593327441    0.68631537153465
H           1.25430311278658    1.57960327235351    1.36112553974649
O          -2.29049625359949   -1.01712386182326    0.46506466505943
H          -2.95940879127429   -1.44801588278976   -0.06927793526950
H          -1.44897882923064   -1.46686645460750    0.26369047151562
O           1.19014835210743   -0.35956792773593   -1.96037272191557
H           1.70056884211084    0.15046354300644   -1.32465242642987
H           0.79787002497321   -1.08283012447225   -1.44786087830747
O          -0.04158188498446    2.72137196594839    2.28935770013158
H          -0.48088222990577    2.43743972135243    3.09242663057487
H          -0.66948656869412    2.56781173708289    1.56674062102725
O          -1.28434171376079    1.46424754559792    0.07559765829912
H          -1.77092467518336    0.64423372832899    0.28584874135186
H           0.22829194865211    1.04846570019057    0.34381054115190
H          -1.28380139931914    1.52414444140976   -0.91684302136707
N          -1.04172030319179    1.35150553463625   -2.58209908637014
H          -0.23537530411245    0.72218642179697   -2.54808276854819
H          -0.75678336975679    2.18703217372084   -3.07706919203070
H          -1.76103793453528    0.89854989017650   -3.13134419867625
