    26
        -50.44649676  Gyration_radius:  2.48670820617 Dipole_moment: 6.333
 S           1.87190303756267    0.64428700936313   -0.64930425654400
O           0.55883636203159    0.45215658854506   -1.20684688991772
O           2.97672867769509    0.16134743736150   -1.39306395972325
O           2.06150213024824    2.14832425305587   -0.34041952464714
O           1.90647906479599   -0.01678487923474    0.76068599087899
H           0.99021097445263   -0.17780700328068    1.13531889641245
H           1.16840286996821    2.56002475349130   -0.18865673044471
O          -0.38381778384795   -0.58776224264586    1.80692455582622
H          -0.19682848166346   -1.03795980754542    2.63231896260300
O          -2.06267109521995   -0.26542275902079   -1.32280557294366
H          -1.15533754752871    0.00533483812206   -1.53128232399684
H          -2.35555563583020    0.37760811120700   -0.66451034034597
O          -2.10639963227896    1.34338558213028    1.05324551418710
H          -1.49910637277504    0.64720460691678    1.37715778981823
H          -2.86949648243864    1.34516431611923    1.63298110681993
O          -0.26374394934467    3.18555444177433    0.21729383119728
H          -0.21539986400810    3.75211526523560    0.99036317367280
H          -0.96397419649329    2.52823811047882    0.38778593517648
O          -1.09424950067315   -2.30679104911435    0.11508822605437
H          -0.24586678640154   -2.49975055244485   -0.35296109222202
H          -0.69149433925891   -1.32815342302423    1.13832354360926
H          -1.59210595314911   -1.71697753019353   -0.49700386964769
N           1.30697522973136   -2.39068594864071   -1.13886252793437
H           1.53590135418593   -3.01399199505760   -1.90411214652118
H           2.11704083209681   -2.35017575512824   -0.53186784685117
H           1.20206707814464   -1.45848235847283   -1.52579043449855
