    26
        -50.45209654  Gyration_radius:  2.57677649898 Dipole_moment: 6.614
 S          -0.03990652645525   -0.44555787943673    1.02785811498476
O          -0.42957879222385    0.92737479983958    0.81526092229560
O          -1.05249878600444   -1.40498959122803    0.72295888702022
O           1.23438077133606   -0.71788624197709    0.17493188992174
O           0.47609177405527   -0.64626705088013    2.44120885256436
H           1.37854495170183   -0.14875104729633    2.49760479534993
H           0.97048980036755   -0.79447569819371   -0.80195565363242
O           0.45009934963297   -0.77451919569178   -2.24490564416987
H           1.04670748201311   -0.37135605432085   -2.87852164419746
O          -1.31368696964644   -2.93560737266697   -1.60221379060106
H          -1.17915808235451   -2.69593143671760   -0.67479578400049
H          -0.64665995701244   -2.44189525495325   -2.09221340074091
O          -3.24509790865019   -1.04790968074423   -1.11636029401845
H          -2.81525102119151   -1.82017978371056   -1.52912202881921
H          -2.99147701015582   -1.10875807112461   -0.18879446464007
O           2.65842437627888    0.59475609374318    2.30055113201516
H           3.00021477811572    0.19894490024923    1.49391795347557
H           2.34602853409642    1.52018066150735    2.05970281602216
O          -1.45460068600039    0.82413285217101   -1.69469328888527
H          -0.33480422193561   -0.13178266543707   -2.13496496955925
H          -2.24591998043614    0.23799149365932   -1.59669814761423
H          -1.19845085167962    1.05673271850149   -0.78683712599444
N           1.54047051190786    2.85744034716757    1.53529058641666
H           0.70311494185052    2.36190881293944    1.22795911982257
H           1.87266333095520    3.42130973551427    0.76315688642105
H           1.26986018146165    3.48509459906822    2.28167428055564
