    26
        -50.44095363  Gyration_radius:  2.56212073917 Dipole_moment: 7.680
 S           0.84984863736193   -2.08545372669747    0.90867641207023
O           0.71992652993777   -1.44538745102128   -0.37662750413567
O           2.05717306069685   -2.77812891792850    1.16391998048498
O           0.59923483208827   -0.98528851745481    1.99690588695566
O          -0.35936513026627   -3.00914576624128    1.14979519239530
H          -1.14703329284436   -2.42741864091340    0.97387001624519
H           0.92937968394346   -0.10277977623247    1.66261330300259
O           1.33254220315954    1.33972623679228    1.12010898171099
H           2.04908243275122    1.70192410974472    1.64416914675366
O          -2.29609012370931   -1.31182763123046    0.84335886802221
H          -1.94778644822391   -0.40293312503007    0.98528516324743
H          -2.96510436839594   -1.46111746369131    1.51468047188334
O           0.69342400137824    1.88278788832383   -2.83445170184425
H           0.45386020797028    2.78223997704246   -2.60767795697173
H          -0.06209143931246    1.30675963154694   -2.54176554780622
O          -1.42329633266616    1.20422525907491    1.32529666499384
H          -1.47879606089600    1.37692608725823    2.26732801425504
H          -0.49221871408660    1.34705691804890    1.08591671927372
O           2.31719688381707    0.63425193158937   -1.10931917605932
H           1.92389293482869   -0.25346713428077   -1.08542717846495
H           1.85178052279550    1.10954420945167   -1.83659900161589
H           1.74083649192859    1.11838641444141    0.20536414266092
N          -1.19248261243840    0.30537914445775   -1.75890901317684
H          -1.73218760074952    0.73906782377648   -1.01967723147742
H          -0.58392970754602   -0.38583220027492   -1.32396593335729
H          -1.83779658150789   -0.19949529050804   -2.35286871905271
