    26
        -50.43893773  Gyration_radius:  2.70274908098 Dipole_moment: 2.908
 S           1.60688903302652   -1.28200715273371   -1.83955666743712
O           2.65714353293848   -0.92907052164033   -0.92838552792522
O           0.50659557127136   -2.01109163294062   -1.31581348887713
O           1.14122523891558   -0.03449542996905   -2.60787940093175
O           2.24890154188464   -2.11303553470072   -3.00767641648009
H           3.09036630772689   -1.69716819392303   -3.17919778922610
H           0.75081970902441    0.67849002093714   -1.96852640014648
O           0.24965145970325    1.73265282276716   -1.06606368644253
H           0.21639479833212    2.55361710812515   -1.56079646435084
O          -0.27006245071795   -0.66663941400862    2.58700596989073
H           0.16158436600818   -0.99443293781946    3.37681873345376
H           0.44548993368591   -0.30573060255834    2.01101888508041
O          -1.43917114025274    1.79453536234061    2.31148381468239
H          -0.62973354239013    2.30664100979739    2.36328121559452
H          -1.18046071942900    0.87272709008540    2.50372109921361
O           1.56718640356574    0.53567844762546    1.07522402184539
H           2.09369362615294   -0.05604773694072    0.51334517266347
H           1.11596615209687    1.12439340576937    0.45317317895504
O          -2.08198845418743    1.29429401207961   -0.27760865264078
H          -2.12721223602037    0.29368303524497   -0.20165991784975
H          -2.03600999576711    1.59822114702394    0.65228403430520
H          -0.74703350033960    1.53555524844229   -0.77323510619523
N          -1.91697341652213   -1.30230374856207    0.14539647272408
H          -2.68871050704854   -1.95321928863888    0.08020774327257
H          -1.56846220256125   -1.32604408099314    1.09912097105545
H          -1.16608948910753   -1.64920243480711   -0.44568180424258
