    26
        -50.44328697  Gyration_radius:  2.53815677233 Dipole_moment: 6.264
 S           0.76968749159856    0.81437949547454   -2.28228755098645
O           1.31334168925051    1.48761173413760   -1.13656792605494
O           1.55162148544550    0.76589522087317   -3.46082285459554
O           0.38513593961485   -0.64662890199745   -1.82665093501993
O          -0.62998302775570    1.37652291075992   -2.60967714028054
H          -1.16309356670830    1.42510351849738   -1.75998626285350
H           1.02253739702714   -0.96147918630348   -1.12376671910882
O          -1.97724347700217    1.50346078969622   -0.40595577495454
H          -2.64984497160803    2.18317754404697   -0.47459006011967
O          -0.39023486037097   -2.33048545909203    1.44847302188035
H          -1.03636552685543   -1.91264063674624    0.82100327721324
H          -0.71747158777202   -3.21580265903181    1.61395026415060
O           1.80717180453575   -1.72025305982573    0.04718386530268
H           1.05787417967477   -1.99008825833632    0.63055244968955
H           2.19713169215652   -2.52300825430050   -0.30401419482473
O          -1.92743834981070   -1.24959042710351   -0.40210171315136
H          -1.28452349025552   -1.22281959435036   -1.12493070647541
H          -2.15196662156762   -0.31913988172294   -0.24344394683635
O          -0.05493306204510    2.40162529817450    0.98173216311104
H           0.58518894049239    2.31127511354063    0.25269087248476
H          -1.25702658291082    1.87472416630770    0.22356166727294
H           0.22614543355996    1.69858896176204    1.62000135297283
N           0.94028271979131    0.29040405142044    2.31810173208332
H           0.33379979938242   -0.52128790807046    2.35470571369748
H           1.39456137089063    0.38176275896736    3.21772820206133
H           1.65564520123180    0.09869266321365    1.62511120333382
