    26
        -50.44879202  Gyration_radius:  2.45474350794 Dipole_moment: 2.832
 S           1.51108440643832    1.17725884103765    0.80455073976106
O           1.39842310404736    1.07154541175848   -0.63566329220624
O           2.74163998007766    1.66288083987575    1.30546782610874
O           0.36008593327355    2.08146588254988    1.32918845094489
O           1.17789261082665   -0.19826067746389    1.40502500768005
H           0.66526742716605   -0.81895917175298    0.69352743735648
H          -0.49030455588974    1.57742125256227    1.35223440350387
O          -0.03628036748864   -1.67895729406165   -0.16821449958929
H           0.59674326270359   -1.74070898696434   -0.93418111838215
O          -1.85998210072476    0.70769247858910    1.66538711483757
H          -2.36769099977810    1.15580327160128    2.34410014856404
H          -1.58322778177099   -0.16867154841101    2.04417240990183
O          -0.74333112999538    1.95035185728120   -1.91241362379357
H           0.07831996383274    1.71105393200649   -1.43469739553801
H          -0.47526547787168    2.25099050038538   -2.78137279257782
O          -0.94510570629545   -1.61614273123584    2.53862445228494
H          -0.03678373764209   -1.35397452585141    2.72810285751438
H          -0.89639208114916   -2.12647863219529    1.72022083736618
O          -2.04437679632966   -0.20403054371338   -0.96217047274636
H          -1.67069726344878    0.55332744411633   -1.45420800787260
H          -0.82412541605635   -1.17305535399645   -0.52085270843225
H          -2.31331753955999    0.16679876419000   -0.11142246954331
N           1.75561644104174   -1.38223772113805   -2.10752064152925
H           2.66597586527769   -1.81734517682722   -2.03442695190398
H           1.84319051011269   -0.41838180198177   -1.78891564624771
H           1.49264149921216   -1.36938632033902   -3.08454205547948
