    26
        -50.46775009  Gyration_radius:  2.42061824955 Dipole_moment: 5.385
 S           1.03602471741606    1.06379874585199    0.16015212013389
O           0.49058730248174    1.23982340132526   -1.19899039304776
O           0.04162683513370    1.36411239041309    1.16092544006226
O           1.60811017358034   -0.27167086055211    0.28509077079150
O           2.19247864052386    2.09731577950985    0.33039541005542
H           2.81367951545018    1.87482508219229   -0.39006986394343
H           0.54542602011578   -1.18502996993796   -0.65698009514948
O          -0.10966363275327   -1.64946965879832   -1.21762132629285
H          -0.03568983208768   -1.24961638164247   -2.08601391760996
O          -1.40455341155387   -0.68370303935827    2.25054954539510
H          -0.73481115663941   -1.39106438140693    2.32918875380865
H          -0.88734737177684    0.11528131872828    2.05281197427254
O           0.71153949987772   -2.33240193544633    1.84294339841397
H           0.51096176458938   -2.94956115565074    1.13515924074641
H           1.18897913936729   -1.59624479160606    1.42420122802987
O           3.08203062800475    0.82498976796456   -1.81634611836916
H           3.13002233087741   -0.00681434220240   -1.33311793165225
H           2.13955632080656    0.96802211916352   -1.99641648550053
O          -2.48026733300929   -1.00447179271359   -0.10036900813307
H          -2.33384553791620    0.40304365014446   -0.39442713320200
H          -1.71537915209138   -1.41734328207896   -0.55389182645149
H          -2.22066454890323   -0.99477968082458    0.86475409036456
N          -2.01422386238414    1.46842154238160   -0.51673238590473
H          -1.07096433215618    1.44482297180964   -0.99514961772742
H          -1.79166566684926    1.81938372565404    0.41944034093039
H          -2.69194707009106    2.04833077707778   -0.99948622004198
