    26
        -50.45462858  Gyration_radius:  2.52347950744 Dipole_moment: 3.148
 S           1.64620838513848    1.79848127944090   -0.78785063666704
O           1.50784283018402    0.79292527485349   -1.84186116380779
O           0.36205000448048    2.26494940547740   -0.31159069186642
O           2.52977928899741    1.33682189205801    0.26521587674323
O           2.35569876262740    3.03914101629825   -1.46061170350963
H           3.20154631708724    2.66266094505898   -1.67713092661490
H           2.05353925492405   -0.08585732986060    0.78311931697312
O           1.69511676138612   -0.93568341283523    1.15447846078488
H           2.43132673513202   -1.35760156458202    1.60006425389074
O          -0.55641935059971    0.61780516084133    1.66659929787115
H           0.18715926786215    0.00187428318763    1.74055538364774
H          -0.18695015570794    1.37853513145830    1.18626682366442
O          -0.56894897280943   -0.57630891982051   -2.05252111547999
H          -1.25208313747635    0.03669377842016   -1.58452354516397
H           0.30668629428599   -0.02250236703051   -2.05786378848446
O          -1.97204492995841    1.04687638160621   -0.69047874701313
H          -1.85965984833365    0.73292618382614    0.22213810153194
H          -1.31298609994576    1.76541292018312   -0.74763247146042
O          -0.14039044528095   -2.29010110748984   -0.30477184414719
H          -0.38119527492003   -1.38580642088800   -1.36612802852366
H           0.60049204948722   -1.89319689133310    0.19580329421320
H          -0.94000947600480   -2.20710709552107    0.28524982969985
N          -2.24084474819423   -1.77865375948225    1.27487567718069
H          -2.47525482629784   -2.46219777007420    1.98284334677727
H          -3.09107691448593   -1.53598318418592    0.78177065032421
H          -1.89958176156946   -0.94410378961409    1.74398433944098
