    26
        -50.45146369  Gyration_radius:  2.53099818723 Dipole_moment: 7.053
 S           1.79832324013563    0.51612315066092    0.73332264470789
O           0.71490507533527    1.07888493506007   -0.05262015664663
O           1.98663095395776    1.11728000024821    2.00869738660587
O           1.52936743375390   -1.00982955504501    0.87791096153680
O           3.07198228199235    0.52178737357069   -0.09000416239471
H           2.81230196145909    0.00742969092978   -0.99690656469772
H           0.55176883089071   -1.23854541024940    0.99128513300973
O          -0.93233116242541   -1.66948036498198    1.05851288867384
H          -1.05710963950896   -2.28708685279854    1.78081427808313
O          -2.96102740391194    0.57374145922388   -1.17036263362236
H          -3.66702966649705    0.09856176471282   -1.61021028147441
H          -2.12132691716027    0.19030256642239   -1.48457614194938
O          -0.51582572143413   -0.68233813728394   -1.55179386365774
H          -0.12610767948535    0.07138174896752   -1.05554075364944
H          -0.72971001997012   -1.33385617339562   -0.87085680278049
O          -0.60578084424994    2.23815735556939    1.99854385655610
H           0.13450202431613    2.09460172976902    2.59693250357676
H          -0.22879163757929    2.07857888568051    1.11937376295058
O          -2.44323486640737    0.32782082039091    1.51368768059461
H          -1.88281039580537    1.07955745316883    1.80193176705887
H          -2.75544658458401    0.56130715056803    0.61879934106590
H          -1.54220997890017   -0.87204455936022    1.26413662184394
N           2.33378637185777   -0.73334984716599   -2.16694564509901
H           1.31532831558650   -0.81049855883411   -2.11709750542088
H           2.73516805204926   -1.66173494307588   -2.17391748295678
H           2.58467797656916   -0.25675167279268   -3.02311682197828
