    26
        -50.46400382  Gyration_radius:  2.43606855191 Dipole_moment: 6.315
 S          -0.78925075415290   -1.80452638892583    1.09221522649146
O          -2.21425804115899   -1.74261805103790    0.86053377109813
O          -0.03808479422756   -2.28659467545583   -0.04263797942536
O          -0.24796876886799   -0.55138170649016    1.62388799284845
O          -0.56912378181832   -2.85015034548529    2.27149741017332
H          -1.02583237053337   -3.61182736771286    1.93102304408627
H          -0.98948304466894    0.83245534265607    1.38584065743138
O          -1.34748135039692    1.73633736378523    1.16270586636371
H          -1.75727067504348    2.05948420955962    1.96598906154673
O           2.17296047399273    0.23518212899643    0.92991943661467
H           1.37361658700560   -0.15315862746489    1.35132076700875
H           2.34227176907235   -0.35829391661466    0.14830882483692
O          -1.95243560651672    0.06106584447509   -1.02627864358616
H          -2.08473402058763   -0.72541821623018   -0.45650882396944
H          -2.05355140458446    0.81123805017079   -0.42601974407846
O           2.05554429794383   -1.20731366408495   -1.24764084668189
H           1.35972288398097   -1.76956847405899   -0.84768330569087
H           1.56747956400734   -0.62775635926145   -1.84915845943250
O           0.20473334049747    0.61010947705325   -2.38907168193017
H          -0.05660341407725    0.66524972603934   -3.30891736969622
H          -0.59536309182357    0.27395659574845   -1.89872084633934
N           0.93116535637500    2.12041406726610   -0.25882152871819
H           1.39402476409327    3.01687502195462   -0.34961362260278
H           0.71574768796196    1.70339691335305   -1.18565960636484
H           1.55804225184487    1.36885754002390    0.28325733105704
H           0.04613214159463    2.19398549175505    0.28023304896283
