    26
        -50.44191886  Gyration_radius:  2.55330694609 Dipole_moment: 4.984
 S           1.91478197049977   -1.40350909835584   -0.63624265212021
O           2.09827559241501   -1.31203745858384    0.78159662395617
O           1.96676438518269   -2.69343779312556   -1.22488489337063
O           0.52138158216045   -0.73593279726691   -0.98170842402049
O           2.85016112085748   -0.42976177375893   -1.36925325351923
H           2.65319920212186    0.47137119640996   -0.98226661409175
H          -0.21493309129794   -1.26895497459205   -0.55808021770610
O           0.06177846416888    2.00476096181738    1.26138791649042
H           0.15648282042586    2.61528834074936    1.99311944457175
O          -3.10931378601994   -0.12785316173443   -0.98640660478378
H          -2.43539499026066    0.59222514805032   -1.05457218312937
H          -3.51323178312103   -0.19632943302111   -1.85269626909395
O           2.09351811837892    1.88159232410127   -0.49635059057748
H           1.67167085396597    2.30118758775874   -1.25087716392353
H           1.41702169606456    1.87630055026355    0.21950209193491
O          -1.04073593511179    1.53972383753875   -1.20410678646241
H          -0.41221187153885    0.81385524320979   -1.33265577667543
H          -0.84258278328144    1.88077089007438   -0.31671248812248
O          -1.51384427262307   -1.99713827750217   -0.01753566132255
H          -1.63776728620883   -2.81296759278495   -0.50664076206454
H          -2.20837136149725   -1.35870071892329   -0.32547585450449
N          -0.13589846761556   -0.40821530556668    2.24001215460716
H          -0.88917391786235   -0.95238064045158    1.83538277997465
H          -0.13473948198536   -0.57467368072556    3.23837561211866
H           0.73491259149668   -0.78600797266611    1.86089352438512
H          -0.05174938933913    1.08082459908545    1.66619600744250
