    26
        -50.45219229  Gyration_radius:  2.42936001916 Dipole_moment: 6.853
 S          -1.68867020137729    0.87787462070253   -1.19085683169090
O          -1.04368333283631    0.46010703649981   -2.44712774354804
O          -3.04298172586964    0.44555372460894   -1.05275174256856
O          -0.83762590341493    0.10864758594217   -0.06419028340151
O          -1.41011359034949    2.26892399846732   -0.87203561682394
H          -0.06029137890520    2.30417329764925   -0.17249315153639
H          -0.98910966754260   -0.84769992968315   -0.18685553997107
O           0.87914819993900    2.32633630744266    0.20425072919251
H           1.05055460408493    3.25033090159170    0.39336223454216
O           1.63139389675706   -1.61940174441671   -0.13553863172379
H           1.53211297473976   -1.10932526915789    0.68779972556988
H           0.83764232225227   -2.16742384704567   -0.19124952922241
O          -1.18768648296319   -1.25644978134532    2.43155681154240
H          -1.85590432360141   -0.61436808186674    2.17673242718456
H          -0.34043525529936   -0.78537058063417    2.34910581408273
O           1.16817393601599    0.18132103719649    1.92832787987833
H           1.78062260358613    0.56363549261451    2.55872268591419
H           0.89661198173833    0.89840317288777    1.32005892537140
O          -1.04883400542649   -2.55346686361549    0.11013855593403
H          -1.13276233344534   -2.31062550715887    1.06351432355601
H          -1.90998936430348   -2.85863756351748   -0.18070762525515
N           1.38825130634386    0.49039614174312   -1.76153778291399
H           0.35333467982629    0.47266263166429   -2.15269244220764
H           2.06746258276628    0.59838874671787   -2.50634283477109
H           1.42100436961690    1.27842976019219   -1.09114924877879
H           1.54177409759184   -0.40241526750098   -1.21804110824238
