    26
        -50.46465947  Gyration_radius:  2.56171615614 Dipole_moment: 4.444
 S          -0.53509089715715    0.95588412987748    0.26587748142349
O          -0.96807744041157   -0.02847934945194    1.25623858351787
O           0.70508855793018    1.59504994790575    0.64145801877110
O          -0.41395849572896    0.32181675180351   -1.05948318816805
O          -1.62646126213253    2.04718532189317    0.15960125113943
H          -2.48840418911671    1.55711512647050    0.11658808835551
H           0.58414383211066   -0.92464684319545   -1.09049465899820
O           1.20290226493804   -1.70145968522978   -1.03138244492632
H           0.83179453442526   -2.37630511284378   -1.60197629997067
O           2.83681726495861    0.58637980065390    2.03389811830144
H           2.13902723379569    1.25337571350003    1.93217264028434
H           3.25592374862840    0.58338963024578    1.14857675737058
O           2.91369442049145    0.61143725637992   -0.64987504396994
H           2.11027483097447    1.11308673730174   -0.42461987887993
H           2.60418208120131   -0.21055046798750   -1.04444527952349
O          -3.87144127737920    0.77893945152269   -0.23137785311809
H          -4.52015265119155    1.35841811464293   -0.63677850881297
H          -3.54941646304137    0.17097627616862   -0.93526780289014
O          -2.61148470376398   -0.50852967497174   -2.20162360401115
H          -1.75700970953141   -0.25227312683945   -1.77769858854019
H          -2.60459006054533   -0.09681477348997   -3.06781015229576
N           1.16352312467387   -1.39792962504706    1.65869185385369
H           1.12666465034863   -2.15690669548760    2.33007162994641
H           1.33383581606942   -1.74136622008194    0.69323137341378
H           0.22629488937502   -0.86629826967977    1.60561949237807
H           1.91191989014964   -0.67149441410245    1.91080802538721
