    26
        -50.46666848  Gyration_radius:  2.48583303534 Dipole_moment: 3.117
 S           1.00006746857154   -1.87758084530948    0.43782789201713
O           1.41515151283921   -2.23990719407039   -0.90960708613419
O           1.68853470660524   -0.73635376076161    0.98502672709131
O          -0.45331247077336   -1.72838775291179    0.51979858208979
O           1.37095533625345   -3.11943880613158    1.35133273848642
H           1.14527242343544   -3.85931301169253    0.79640861887555
H          -0.59446794418029   -0.48641857225893    1.57966903347045
O          -0.63942467667041    0.30353350814693    2.16673900521499
H           0.18243989503331    0.27214380096680    2.66244654366801
O          -0.06701766210740    2.52698810800762    0.60068641722304
H          -0.93402156137454    2.69478513392323    0.22308061894394
H          -0.19800649915012    1.79092277298010    1.22621594637147
O          -2.73747779266570    1.34758226793961    0.64467845740191
H          -3.62777339420449    1.08403148953306    0.88129641184159
H          -2.15170157729591    0.99913086253607    1.33605483471502
O           2.09243912145960    1.43240093911277   -0.55794239986263
H           1.41691366410374    2.02424676039536   -0.16770560327880
H           2.16939178536183    0.69627410683091    0.08052337042774
O          -1.66978320656370   -0.24232636742106   -1.34016714354488
H          -1.35421467138560   -0.91512358839942   -0.70378547218807
H          -2.09017390536954    0.44070247717891   -0.78694793053080
N           0.80608847256609   -0.06954063157734   -2.24080107428641
H           1.10764404658958   -1.00546356312484   -1.85373830442159
H           0.98951850745956   -0.00195015250113   -3.23551765369303
H          -0.22564206769703    0.00953373234944   -2.02443312985995
H           1.35860050916045    0.65952830626165   -1.67113940003823
