    26
        -50.47020170  Gyration_radius:  2.43855214486 Dipole_moment: 2.390
 S           1.25977466372685   -1.12019393860864    1.39366571544248
O           1.72022383183458   -1.54659647417408    0.08924033826177
O           0.44691154587518   -2.06243474879254    2.10787240937319
O           2.55745040062977   -0.88144898838666    2.28397255794795
O           0.61994523554680    0.20613592595007    1.29063178144291
H           1.42934117578536    0.80602177021349   -0.02029101269294
H           2.38053925935098   -1.41603789702599    3.05147953361256
O           1.83029299191474    1.01821564867992   -0.89302071284860
H           2.41033680849317    0.26503317730072   -1.04692265987197
O          -0.48035225904481    2.66155960429883    0.92583528988736
H          -0.10341536462844    1.83078218921165    1.25857250598122
H           0.23865976940736    3.11270124057631    0.47860404770008
O          -2.28821630021341    1.39083660092308   -0.61688095839283
H          -2.44883325819513    0.60299301949650   -0.07739117839400
H          -1.77648106320003    1.99521645948518   -0.03763789921505
O          -0.47536670752241   -2.02821719721465   -1.31026361423750
H           0.39609367146099   -2.03552267491667   -0.85939566041448
H          -1.11967629763582   -1.87078920134130   -0.59611997730795
O          -1.74700629196244   -0.93182424579943    0.85463933373209
H          -0.90908511295576   -0.47948153566866    1.07836147389789
H          -1.82075242093983   -1.62112964543887    1.52029250714664
N          -0.42399325250880    0.43378367222739   -2.20709000216576
H          -0.49882330358720    0.62348672459992   -3.19960836411886
H          -0.46572940893432   -0.61492966051071   -1.99821887212245
H           0.49076118051251    0.77634696414097   -1.81143110448468
H          -1.22259950321473    0.88549321074896   -1.65889545814836
