    26
        -50.47006538  Gyration_radius:  2.4351732084 Dipole_moment: 3.762
 S           1.43223757022815   -0.83150085085315    1.43915929596203
O           0.68053352907105   -1.32834889150615    2.56433827775422
O           1.44690735375772   -1.72352919477564    0.29797827485579
O           1.07598938535073    0.53264829343052    1.05511495476215
O           2.93898622937609   -0.71770360220456    1.94547475305099
H           2.99089374177284   -1.46366279914867    2.53339667725325
H          -0.33692245926455    1.18296249385511    1.47528495945346
O          -1.22786374080334    1.60202759939844    1.59923601867254
H          -1.13354494882353    2.21034506897317    2.33297748237460
O           0.91236240398427   -1.18444273931431   -2.15525971105159
H           1.31523073570555   -1.88043819137354   -2.67588259037170
H           1.12703562695471   -1.39989105973081   -1.20617549366591
O          -1.54246028288906   -1.19864977589496    1.11564910463669
H          -0.74768273822152   -1.42587217217098    1.63088151745360
H          -1.82225063790152   -0.33966044925067    1.45349864076646
O           1.23186404547628    1.43481994737136   -1.42800216622853
H           1.27797245831022    0.59359833597776   -1.91383689075913
H           1.35878297536589    1.17633306508494   -0.48910786135030
O          -1.72725970042764   -0.90588309235224   -1.53442987321687
H          -0.84004171988625   -1.13128729140146   -1.87394006789801
H          -1.72508016545014   -1.19904548501482   -0.59652939657789
N          -1.36085232806621    1.62982548208203   -1.12357981031012
H          -1.63128904554969    0.60450474262801   -1.34841972215117
H          -1.90140856679541    2.29498174704967   -1.66337878184140
H          -1.48137287723466    1.77403870134301   -0.10441377503921
H          -0.31076682404167    1.69383013779605   -1.33003382653612
