    26
        -50.46427922  Gyration_radius:  2.45575878309 Dipole_moment: 3.062
 S          -1.05630271769053   -1.57586599454525   -0.66304504207437
O           0.20268446664844   -2.05129953259413   -1.20974559917806
O          -2.11995019936453   -1.45888877781047   -1.61815478135706
O          -1.51787381425457   -2.65127303754903    0.42983554956997
O          -0.84530899816214   -0.36492548081337    0.13357905445134
H           0.80827122973251   -0.39111738096481    0.31243115541574
H          -1.94264223065281   -3.33142554025646   -0.08375850689323
O           1.79056600881242   -0.33001284335098    0.26382447833939
H           2.03833858019260   -1.14757898848936   -0.17844104237057
O           0.97010749783029    1.36323781950504    2.46802179468595
H           0.34322610049728    0.73220417276532    2.85723432317190
H           1.57406611647681    0.82275345062995    1.94563428982210
O          -0.60558396123848    2.31631057834937    0.53809464054454
H          -0.05374557810296    2.16625725168938    1.34498785292760
H          -1.08225377831799    1.47879040456916    0.42981131391912
O          -0.15223957431540   -0.04283622263482   -2.88014457705860
H           0.16535942319869   -0.85748262443937   -2.44100631260134
H          -1.11147717548694   -0.14523347059383   -2.83537118878422
O          -0.83168526327505   -0.71504482421916    2.80090112568563
H          -1.00204723577350   -1.63309260692152    3.01459191373733
H          -0.96263460307093   -0.64040976336964    1.83844703025472
N           1.10043686387184    1.71858482520767   -1.31630326570373
H           0.57008068202347    1.15714755819122   -2.03424591008790
H           1.67631576932212    2.43451551909486   -1.74393410794810
H           0.38500434578285    2.12132131421377   -0.60503789344674
H           1.65928806543198    1.02536421459474   -0.76820632499999
