    26
        -50.46797320  Gyration_radius:  2.47224600694 Dipole_moment: 6.423
 S           0.59050999689549    0.19407719198753   -0.94961063115763
O           1.19603212935241    0.65530722853608   -2.29212593470219
O          -0.18583639687148   -1.01189324144551   -1.16942684220305
O           1.72339136674231   -0.05274199869919   -0.04765865181215
O          -0.22765591283341    1.28259282475251   -0.41432627080026
O          -2.08566555489081    1.85905697990370   -2.21180589069318
H          -1.99919152263926    2.79205819855273   -2.41381684405299
H          -1.45706611979826    1.67689771560743   -1.48073800291185
O           1.54043573712205   -2.18474059997293    1.55413543488886
H           1.78859581200142   -3.03083131540886    1.17896518835902
H           1.65858079647370   -1.52513309490652    0.83807380382721
O          -1.17951346360586   -1.66300441123440    1.22717820256527
H          -0.99280694437612   -1.49238083058594    0.28327172773379
H          -0.35592848583432   -2.04732533012121    1.56466174300051
O          -1.17841031570894    0.84052680320612    2.01128361733116
H          -1.41619579564209   -0.10845591977733    1.84883474492221
H          -1.00724054598530    1.18424735825396    1.10729381302546
O          -0.87052270834263   -0.08899654859834   -3.59588254432614
H          -1.49202306794922    0.61006428304703   -3.30310537190182
H           0.47949237578478    0.41996330014588   -2.95611214226061
H          -0.93276189921008   -0.78100208353734   -2.91990175481696
N           1.30642933541540    0.50743830733413    2.46447864532202
H           0.21004126031804    0.70688778929387    2.42169168317013
H           1.58201973627897    0.44238069116448    1.43893141454799
H           1.82594597907209    1.22963044432062    2.95059822110120
H           1.47934423823355   -0.41462374181708    2.86511265184240
