    26
        -50.47292914  Gyration_radius:  2.43641317655 Dipole_moment: 1.935
 S           1.06253871376302   -1.72677931082532    0.72504319986952
O           0.07014581804463   -2.56290075293620    1.35646638798680
O           1.01824562915605   -1.75721282687743   -0.71888270697998
O           1.06500571457600   -0.35402726490527    1.23697283012226
O           2.47681815351378   -2.30898217135401    1.16477282756209
H           2.30780825166563   -3.24334850633032    1.11189213602404
H          -0.32061038492680    0.24575648881344    1.84982340713041
O          -1.19197758037614    0.63223130569340    2.11112376734291
H          -1.25063559205225    0.54121386295411    3.06289044957275
O           1.68433069860726    1.69049899305802   -0.24965769417411
H           2.49898495690394    2.05872279483868    0.09452769438479
H           1.49495339930596    0.88569600243533    0.29662379255716
O          -1.94831760058680   -1.26478018032643    0.25008986198178
H          -1.25599646874523   -1.89014522491371    0.54392043489262
H          -2.00818652359548   -0.61817273916028    0.97249416754529
O           1.02385090561241    0.18992610450282   -2.47544095444960
H           1.42444752814447    0.87347414158810   -1.91425740271747
H           1.13371440933270   -0.63870628927269   -1.95900223212748
O          -0.95408743212963    2.44527196547929    0.03398053656267
H           0.01390785689020    2.39635631869623   -0.06271382529345
H          -1.15242762643443    1.98557591118145    0.86664704098063
N          -1.45957562173817    0.48465836958146   -1.68149417162477
H          -1.38957908739247    1.35487708388450   -1.08241239534510
H          -2.19527236995871    0.56199918214320   -2.37397395619441
H          -0.50246067235940    0.34180484387103   -2.13687580953819
H          -1.64562505522257   -0.32300809181958   -1.02255739606952
