    26
        -50.46143109  Gyration_radius:  2.62067749979 Dipole_moment: 4.968
 S          -1.39090540793438    0.17812189307135    2.03807627372174
O          -2.41853741642299   -0.59029086094766    1.36855264894501
O          -0.23080037940949   -0.58489819896939    2.43626025494825
O          -1.00770305576790    1.36269555520980    1.25611544268619
O          -2.05412714476146    0.73579324080232    3.37177830833125
H          -2.94146938834129    0.93932290597487    3.09228710828799
H           0.56317743414157    1.13279217837781    1.05559139198772
O           1.48698175411464    0.82066628162524    0.86282168022581
H           1.75987974638225    0.40859666564323    1.68718767413312
O           1.87425010806585   -0.72905362275827   -2.94576764213782
H           1.86379261412264    0.19030692387442   -2.62322541529457
H           1.55401438514113   -0.70641152658195   -3.84835512909529
O          -1.18730262323704    0.98082867250352   -1.36458554357073
H          -1.32852453283000    1.20057697632002   -0.41919940365267
H          -0.45997642095222    1.54408959174777   -1.65914667136060
O           1.60296589128162    1.74782467057270   -1.71354687385099
H           1.67298414904368    1.48914175869561   -0.77723470813411
H           2.14966925556529    2.52752608233346   -1.81984472728042
O          -0.93288657392320   -2.70730905579877    0.94691015556259
H          -0.43497628623105   -2.40523581580926    1.72110984443994
H          -1.72270946638313   -2.12811290328201    0.98673558401698
N           0.32337002601811   -1.11179384489565   -0.74006568805827
H          -0.41482640622929   -0.43648817026552   -1.08255657000008
H           0.90487721013659   -1.39118536095814   -1.54406477590303
H           0.90455471993978   -0.56321295522350   -0.07666693856300
H          -0.13577219154234   -1.90429107124993   -0.20916629042654
