    26
        -50.45481159  Gyration_radius:  2.53929205006 Dipole_moment: 7.470
 S           0.98759153696655   -0.95834522415443    1.69998789082759
O           1.04824593831494   -2.35675298279937    2.01821618925785
O           0.90744673509827   -0.64134652735558    0.28856355149864
O          -0.01447645499144   -0.20834466551722    2.46133026463736
O           2.40172583168708   -0.34029076779211    2.15168558900033
H           2.60253198529512   -0.81383865701795    2.95330189717155
H          -0.44374197289047    0.91411730456517    1.45989933459130
O          -0.77874294726071    1.65429362980215    0.87610793364181
H          -0.92041395708286    2.39792399599395    1.46424861171152
O           2.66501459902456    0.25080747241742   -1.34502645114278
H           2.79168746969925   -0.46549543805841   -1.97055978875434
H           2.16875635958362   -0.15205511235576   -0.58602153126742
O          -1.60549950123911   -2.12286035843162    1.40062576392105
H          -0.83420234187202   -2.70002666772703    1.35764463291715
H          -1.32142820641448   -1.42187138176311    2.00544363151533
O          -1.31442681682997   -0.00016592500822   -2.79574450177790
H          -1.71871828770757   -0.27299280847328   -1.92320552733675
H          -2.05065083558378    0.26454724609181   -3.34913020250321
O          -2.38505193456570   -0.29765026374845   -0.44574832007407
H          -1.97533615469190    0.42645371456642    0.04799038475054
H          -2.18581761119184   -1.09555244747327    0.08272313516599
N           0.39745539889530    1.61468322966216   -1.58240801003889
H          -0.25743762497791    1.00959556153635   -2.15550339740351
H           0.45223729713826    2.56021337644236   -1.94502834141335
H           0.03609168751993    1.60976087389029   -0.60099806866091
H           1.34715980808157    1.14519282270539   -1.56839469023945
