    26
        -50.46600604  Gyration_radius:  2.55954807734 Dipole_moment: 1.417
 S          -1.01892048443516    1.38771809007125    1.35369349352597
O          -2.30776914984259    0.88944834673416    0.91923663698486
O          -0.15326517194771    0.37362782243929    1.92522837944561
O          -0.34347206889574    2.13744502997613    0.29750517143105
O          -1.31611925356251    2.41646118650956    2.52171349231326
H          -2.12345569521269    2.83528064207246    2.24036784007083
H          -0.99932125743980    1.41012452740785   -1.08825677642525
O          -1.41939566628814    0.85499655307768   -1.77433067860650
H          -2.31120532772532    0.71416497687978   -1.44404934626632
O          -0.24664481956402   -1.51547394748569   -1.37120613709334
H          -0.67112118023251   -0.71942647243212   -1.75908144095489
H          -0.83855793226660   -1.75609831934796   -0.61930485758586
O          -1.70015467109142   -1.69672454048197    0.85158304790614
H          -1.09676080818705   -1.68212487983451    1.60001029958793
H          -2.09413801460045   -0.80128248686056    0.85222069493671
O           2.06611909184877    2.11825799787392   -0.80996907564206
H           1.22495169753471    2.30600353326371   -0.34220194043044
H           1.89871112673564    2.31484649695892   -1.73391019361449
O           2.07217777067562   -3.02182171659550   -0.54259139103220
H           1.27313723140068   -2.80057169938890   -1.03912806940672
H           2.16281110579480   -3.97433435894621   -0.58054965291809
N           1.61763942165430   -0.35784098613544    0.11534295856975
H           2.32207937335193   -1.05814038395682    0.34121055356146
H           1.04239260539186   -0.08383327240843    0.95155509161432
H           2.02218643299125    0.51328284313064   -0.29360393533767
H           0.93809564388019   -0.80398499255390   -0.57148417475839
