    26
        -50.45440014  Gyration_radius:  2.56085326239 Dipole_moment: 6.011
 S          -1.04861456149097   -2.03334325635379    0.71731818358058
O          -1.25650547304270   -2.10796811240003   -0.71166631286612
O          -1.63067972695737   -3.05376920377384    1.52780519488399
O           0.54959637540146   -2.18951397920082    0.95017831028726
O          -1.32498593767983   -0.65834691329858    1.17152652925047
H          -0.23770436873867    0.36279641323429    1.70485885463153
H           0.54558228332890   -2.92882909003556    1.54852339652555
O           0.38147781760838    1.08891681122990    1.98739891203374
H           0.60208772272000    0.90743484581075    2.90193221748851
O           2.34680812176547    1.26828342585078    0.08258685651880
H           1.68623680133592    1.13571479353585    0.78769957666301
H           2.56410630603555    2.20186262774643    0.08485482193583
O          -1.18139686348830    2.88368133757697    0.60605779189893
H          -0.55490867947199    2.38012125735187    1.15836347006203
H          -1.95968991442181    3.02592656829264    1.14738524398856
O           1.05651790024923    0.47339721953014   -2.16131990810549
H           1.65181892971256    0.75205378253143   -1.43631929876285
H           1.16073232217975   -0.50718621351762   -2.22255182847516
O           1.12364732711904   -2.15486034112938   -1.86197110926473
H           0.19358278609404   -2.23435252171177   -1.56028254552945
H           1.64966026844204   -2.28365489810138   -1.06819222812660
N          -1.28232952896425    0.74164368081096   -1.08174126004873
H          -2.03249732508145    0.55644527488046   -1.73873019933916
H          -0.31784320737106    0.63113613699745   -1.58233061709842
H          -1.34716801262262    1.68956576770382   -0.66106154470400
H          -1.33753136268119    0.05284458652890   -0.29032249740777
