    26
        -50.46627038  Gyration_radius:  2.45959374207 Dipole_moment: 1.642
 S           0.39825377903313   -1.78218450486500    1.17907075834978
O           1.59769710929369   -1.53188458671051    0.40974997378864
O          -0.14969803925199   -3.09518426567404    1.02448236540424
O           0.80508137451424   -1.62261617329981    2.72548821644579
O          -0.58547811454623   -0.70453228596604    0.99034966363116
H           0.16179739793690    0.71551579174738    1.25435441249328
H           1.02406637892534   -2.50932823589453    2.99568517566821
O           0.58735782794226    1.60120695486866    1.36247649699841
H           0.78259605873169    1.68334380977580    2.29672963502730
O          -1.08607500911679    2.35796290119146   -0.74699691651569
H          -1.86539816446717    1.83144751940172   -0.47832410837772
H          -0.51138501409033    2.37071141468704    0.03455828080851
O          -2.84730251843316    0.56994365513472    0.24157435875496
H          -3.45571931494838    0.60441223329436    0.98064969881540
H          -2.10437863584793    0.00691079908640    0.52235818788336
O           2.40995596858244    0.77770093987709   -0.52551828124678
H           1.99295772487798    1.32308055363721    0.16298285586189
H           2.29173734609460   -0.14124565150298   -0.19342501529684
O          -0.56470071759850   -1.76751694998898   -1.50194928171302
H          -0.69906543666241   -1.53140411311690   -0.57098266118458
H          -0.08597401623639   -2.59908993279048   -1.47047263289292
N           0.37813053259608    0.68791585026237   -2.17027009484460
H          -0.00045490596164   -0.27657667953358   -2.04522190175323
H           0.51216652223363    0.90194356775285   -3.15182626136706
H          -0.28409455631148    1.38517613291696   -1.70708243906094
H           1.29792643271192    0.74429124570385   -1.61844048567580
