    26
        -50.46293857  Gyration_radius:  2.57514697316 Dipole_moment: 3.753
 S           1.60721897189357   -1.62277683920747    0.03516996479143
O           0.19254134850213   -1.69061348514926   -0.35145145717638
O           2.36855030078675   -0.79654165446908   -0.86251893894939
O           1.73661539024860   -1.25325826232802    1.43801882838523
O           2.16432302331673   -3.10078583852806   -0.07303913649887
H           1.76033772137491   -3.51060626571848    0.68483408356886
H           1.55910788217920    0.28935431940895    1.61793835074695
O          -1.24721402250523    1.34307399937232    1.48729511722634
H          -1.58965008532062    2.16232037287379    1.84740217377606
O           1.41212078497875    1.27024838896818    1.74997785943972
H           1.90808920371707    1.49355825542095    2.53965231937978
H          -0.28955411327695    1.30769582314004    1.71153155944484
O          -2.39707202222873   -1.13042308712561    0.36595828128457
H          -1.53518546251086   -1.53612078804218    0.17267476719534
H          -2.21118544655960   -0.42045967342468    0.99116570689845
O           1.90227263809278    1.82179343848367   -0.98315336577028
H           1.87808352674501    1.93873696673747   -0.02204226344935
H           2.28749613906149    0.93021256011701   -1.09964008887212
O          -2.90152485350352   -0.00185921737762   -2.05217504921400
H          -3.21623616677986   -0.65915665589512   -2.67304450242810
H          -2.88368609993172   -0.44381922805866   -1.17386190606787
N          -0.50392281730990    0.74340419115805   -1.09808357231124
H          -1.24133338677198    0.71729465497800   -1.81858024016477
H           0.35567840387491    1.31273627895419   -1.30635801921923
H          -0.92564499445981    1.08334349458182   -0.21454051818704
H          -0.19022589366820   -0.24735176888111   -0.91312995384228
