    26
        -50.44937197  Gyration_radius:  2.46760346356 Dipole_moment: 5.312
 S           0.02604849809830    1.69284324598623    1.59037540717620
O           0.33781044295365    1.10484525986529    2.86031186688544
O           0.94472727029764    1.37668461419480    0.51070354724815
O          -1.36240536886528    1.42733266997632    1.18199096603104
O           0.12297869155642    3.26960961244753    1.78237751196647
H          -0.04503225422245    3.38229384413060    2.71280543658679
H          -1.70659989475892    1.12267935415768   -0.13697127539768
O          -1.37798022245288   -1.71792352106557   -0.68763711723078
H          -2.12213980184432   -2.29938292281716   -0.52953621513757
O           0.85777037885060   -1.37028511092418   -2.24284199321998
H           0.06550404343495   -1.62158051756268   -1.73317983282354
H           0.97730542685807   -2.02994441607921   -2.92692304279847
O          -1.85624545356612    0.75979150764687   -1.13162364580949
H          -1.76060010387406   -0.24844474596482   -1.01695757925039
H          -0.97389506446990    1.06637814607596   -1.63332159664918
O           2.35880110870996   -0.95076083107587    0.17307279617082
H           2.07830299486365   -1.11861295105504   -0.73574100889996
H           2.08669167208956   -0.03847630135354    0.36220846917265
O           0.39776104432922    1.33583249529551   -2.04194746204433
H           0.74235708606506    1.50646868048688   -1.13312838841615
H           0.74703884907460    0.46192931590035   -2.28944257977377
N          -0.09779926216851   -1.42318739125607    1.49343218829624
H           0.88230812735299   -1.47174227879757    1.19259213042083
H          -0.23034735762877   -2.10924289309326    2.22646233868303
H          -0.21464437653734   -0.50151105871313    1.90899538589850
H          -0.87771648381911   -1.60559380643440    0.24392372291259
