    26
        -50.46862398  Gyration_radius:  2.56429100833 Dipole_moment: 2.426
 S           1.42607632892970    0.61836430218494   -1.44018902797897
O           1.77348951970863    0.06239482336430   -0.12773180888665
O           0.73126555211903   -0.33341454199122   -2.26728770115085
O           0.73967561606843    1.89314867834043   -1.30603159610917
O           2.80325391859691    0.92400410669220   -2.16184948322122
H           3.18525772359916    1.64393717270819   -1.66763056752484
H          -0.77157372681290    1.29186231826443   -1.06093564708837
O          -1.60174559747576    0.78731782706247   -0.89321425391494
H          -1.93481900404708    0.55497957066816   -1.76257670276056
O          -0.04084754526463   -2.85772092523725   -1.84182366848197
H           0.23125816499316   -1.96716344623026   -2.14596803603982
H           0.61541459132723   -3.46741135782994   -2.18109791962988
O          -1.67420683022214    1.24820216839903    1.96129798034939
H          -1.99060715573369    1.24507171855066    1.05118377266797
H          -0.76287800257857    1.60930577551286    1.91542460900963
O           0.85492445699119    2.04694647400486    1.43165633510133
H           1.30879818369999    1.26684184668963    1.06596004749640
H           0.69169865898265    2.59336865365691    0.65394953341001
O          -1.27893914787953   -1.20006507063040    2.86551093912548
H          -0.68436492392244   -1.12687145484771    3.61332363913980
H          -1.56056786759775   -0.27444810978763    2.64931706585670
N          -0.41828143584380   -1.33765828686246    0.34704067309687
H          -0.41690918088264   -2.18589151341241   -0.24349371729934
H           0.53698541691248   -0.91107484292788    0.29541382208833
H          -1.04698329481832   -0.63109300331037   -0.09182895513476
H          -0.71537441886879   -1.49293292304182    1.34158068790826
