    26
        -50.47341715  Gyration_radius:  2.39102364729 Dipole_moment: 5.197
 S          -1.06546977438258    1.16356044831611    0.30801673088580
O          -1.47950522122149   -0.21807892366490    0.04927804989595
O          -0.87504396397325    1.42323101355144    1.70743687866833
O           0.13670470337638    1.46488571587903   -0.49115177560414
O          -2.20496622565192    2.08815590166560   -0.21270706308116
H          -2.24246302497981    1.89744646307138   -1.16834718703456
H           0.80617553713327    1.39713461641728    1.98879665489097
O           1.77860849500979    1.30706029343332    1.93024617845851
H           2.03754977861944    1.91249867114020    1.23305930216545
O          -1.44695147124545    1.20961527528877   -2.62598449441982
H          -1.43940760482633    0.25769513816300   -2.78032320300402
H          -0.65778541073429    1.40023253686907   -2.09300480972036
O          -0.64333532835122   -1.39831339932075    2.29434955884704
H          -0.73617979092164   -0.67409753176974    2.91973402875951
H          -1.05914136677750   -1.06447986279723    1.47734763948007
O          -0.82739155045151   -1.63302353904560   -2.00850899652434
H          -1.27523221579127   -2.48007942167133   -1.98597533355964
H          -1.17099433976355   -1.12332152037282   -1.22956167528142
O           1.90371502563469   -1.34653601149437    1.53148892967758
H           1.00770206086054   -1.55936015989870    1.88584876138782
H           2.06201293201167   -0.42712741371859    1.83406755430266
N           1.49919704740421   -0.73391307309573   -0.93659409548171
H           1.71297845342091   -1.11277763179370    0.06883826291982
H           1.04077653476290    0.20890985320205   -0.78390534530820
H           2.34595288323655   -0.64356902930679   -1.48744867917614
H           0.79249383760337   -1.31574840904662   -1.42499587214879
