    26
        -50.46538226  Gyration_radius:  2.49563031442 Dipole_moment: 5.278
 S           1.63266402294776   -0.63219598778162    0.94958967293757
O           2.45611477634862   -1.15681102986224   -0.13262166695335
O           1.34247963567037    0.77572315877147    0.81185996281792
O           0.43775003791413   -1.44899746171935    1.13827318236726
O           2.49080850010377   -0.78171990363902    2.27115793705429
H           2.82345951416253   -1.67373084590941    2.23999470273365
H          -0.48409711747581   -1.61889766685195   -0.17850599522431
O          -0.99942131099033   -1.69640650818779   -1.02139243134829
H          -1.60449508854433   -2.42908588128145   -0.89567269324518
O          -0.56424114362692    0.53492627546726    2.67834919817215
H           0.14959418245856    0.96606339470715    2.18303720271519
H          -0.47792530439208   -0.39055378782732    2.41067121892814
O          -2.73388597384693    1.41979830913482    1.37203410240309
H          -2.88164778767843    2.31861132306976    1.66853732234327
H          -1.98825711185001    1.07256866047639    1.91384852881227
O           0.49685971071909    1.82868102956287   -1.51792905587154
H           0.85987383281290    1.69510051797410   -0.62243718117948
H          -0.48204576358457    1.68075624181299   -1.42289879033836
O          -1.95388416467409    0.95773070330732   -1.17050736102594
H          -2.31319270616431    1.17828599016654   -0.28616861148500
H          -1.77994083556213    0.00566915937560   -1.14393693960664
N           1.12254751496419   -0.53619463336125   -2.28713143387657
H           0.88967796848182    0.52502786517120   -2.10043890680824
H           1.52428972725160   -0.69675234510036   -3.20389391751356
H           1.78180266931855   -0.82197499857476   -1.50750851221526
H           0.25511221516947   -1.07562158899333   -2.14630952457735
