    26
        -50.46787118  Gyration_radius:  2.39902739525 Dipole_moment: 2.767
 S          -0.55546379718419   -1.64320602214385   -0.61008764268622
O          -1.21969058781853   -1.82911593151810    0.65985905957423
O          -0.98022050218141   -0.42882296266627   -1.29844784211738
O           0.89249819502152   -1.72447422036124   -0.50755073871226
O          -1.01726393890865   -2.82866270301585   -1.54925742129542
H          -0.85718691917816   -3.60116038791829   -1.01699136798263
H           1.48331181518889   -0.60200804323115   -1.63425319270485
O           1.94278466361805    2.01591403232416   -0.34208937176134
H           2.67015071464453    2.59652775584285   -0.56774526998390
O          -0.34820282539427   -0.02251867121271    2.41996587969998
H           0.62561491042568   -0.14134062724531    2.32897190920461
H          -0.73681007546403   -0.79504142051508    1.96214226410485
O           2.09705645679333   -0.23610206950193    1.42250909744419
H           1.81068334705466   -0.89782247133594    0.76878380989724
H           2.23735014852113    0.58164561872933    0.92441510687456
O           1.53291403428389    0.19815790411477   -2.19768743541942
H           1.85424704270306    1.36937405303996   -1.09379985228547
H           0.63323363136344    0.29238058092777   -2.52824039115410
O          -3.14743213261227    0.30947167318205    0.25360043975360
H          -2.62540817613652   -0.05043454180574   -0.47558038077058
H          -3.11664590108961   -0.36787845065419    0.93372604725033
N          -0.63553192145060    1.59724177448804    0.42490551838363
H           0.26331577852061    2.06770199397984    0.23524149825007
H          -1.42973462027223    2.23032109297604    0.45370540392472
H          -0.80274947491810    0.87995002956674   -0.32030903841132
H          -0.57081984507076    1.02990200410109    1.35421387094307
