    26
        -50.46543364  Gyration_radius:  2.55487468874 Dipole_moment: 2.831
 S          -0.21499722664775   -1.94565018158610    1.13548966953728
O          -0.21458242409952   -2.41437085940652   -0.24456079625197
O           0.68820418128909   -0.83176105107340    1.34023590230561
O          -1.56286344013872   -1.68139547320407    1.60655466196368
O           0.35312983586877   -3.13569318720286    2.00939475910494
H          -0.25169826432262   -3.84175144263900    1.80656352806804
H          -2.20007676116188   -0.43848331596612    0.85629398160081
O          -0.35199469211290    1.65207113966647    1.52389206986918
H           0.10489516107617    0.79328133782746    1.58713807293746
O           0.80388944988945    3.07142159455838   -0.39415417414460
H           1.50343920425741    3.58765090939398    0.00704459573914
H           0.35600263924125    2.59356558857752    0.34703399641933
O          -2.52329957202860    0.34323451146750    0.33028148243945
H          -3.46100228764094    0.41796571770895    0.51404588242846
H          -1.23781307838349    1.43546199964209    1.20121700588465
O           1.27694128681106    1.05562334749579   -2.07049381478280
H           1.91755716284353    0.52108524455966   -1.55399282380731
H           1.13546839851826    1.87711320657350   -1.54701286161311
O           2.69112795524198   -0.43054937298879   -0.34370730522101
H           3.40852609104413   -0.11941880103200    0.21048157083606
H           1.95946427070665   -0.66136889601111    0.26751041627760
N          -0.85166794087543   -0.36480521823032   -1.73236553512457
H          -1.53506853958003    0.10904374495638   -1.11916187673803
H          -1.28138225435234   -0.61969715010722   -2.61530058536934
H           0.02850691355855    0.26494027695110   -1.90827730208916
H          -0.54070607900878   -1.23751366993318   -1.21415052026824
