    26
        -50.45780015  Gyration_radius:  2.51372708093 Dipole_moment: 3.749
 S           1.89160267496378    0.73886128901019   -0.51919003838154
O           2.68470501577466    0.58907907795974    0.68985989449705
O           2.25493329540095    1.80597815064056   -1.39492927373292
O           2.12958947426896   -0.61988035295741   -1.35944715246332
O           0.46636878074389    0.68364321773312   -0.18608333597171
H           0.16519656715480   -0.96656784917001   -0.09305614627513
H           2.74974723617233   -0.35339806712634   -2.03072915332209
O           0.11982695813597   -1.92078610102723    0.13837521910327
H           0.59653492953749   -2.36800927558193   -0.56325646893660
O          -2.46543958508494   -0.92308669494928    0.81247903095665
H          -2.68542383461481   -0.47930928021435   -0.02900984810264
H          -1.77471510733825   -1.55774279879898    0.58493221046765
O          -2.79539145007716    0.38421935157426   -1.58637637773700
H          -1.96864599317666    0.57254991627152   -2.06001183315561
H          -3.28323599141971    1.20888298128087   -1.56477475660843
O          -0.34629203568007    1.18860323570571   -2.65980503814446
H           0.19115355561560    1.89822521841935   -3.01723156984519
H           0.00076773884521    1.03959192453384   -1.76308122009509
O          -1.00156740349167    0.85576885505695    2.10059247653223
H          -0.62861796763014    1.22977194178930    1.28869721068695
H          -1.68401456861404    0.21681834193978    1.76389675296319
N           1.09188776359163   -0.66282921209127    2.32480310999685
H           0.80164849311758   -1.46573992084455    1.73972755806968
H           1.81886867829969   -0.12736101823102    1.75511152410766
H           0.21879007584105   -0.01975755342487    2.39962402204190
H           1.45172270969716   -0.94752536735423    3.22888319331866
