    26
        -50.45856252  Gyration_radius:  2.57558618871 Dipole_moment: 5.403
 S          -0.15607934849600    1.07923077175100   -0.09227671485141
O          -0.94355821155573    2.28935193470760   -0.09551771257466
O           1.25222016555045    1.27673859707704    0.17887575597654
O          -0.76443197349516    0.18473596965827    1.03455068927867
O          -0.37510628770296    0.30594252350378   -1.34201131769021
O           2.20697319450623   -0.26803306073451   -1.79314511058213
H           1.28431371795762   -0.20538092181181   -2.07935203603640
H           2.23804948366903    0.37929675422242   -1.06941079531287
O           2.64758375798487    0.36557421089879    2.25795763329819
H           2.23629742534586    0.78537969433837    1.47459289111076
H           2.54697994380986    0.99071447201927    2.97715347898342
O           2.06986758830296   -2.54366583314040   -0.42724484652723
H           2.96743751556364   -2.81896568855214   -0.23332095960753
H           2.15153065807555   -1.74243917725400   -1.00187766927983
O          -3.46975988043418    2.08041876980733   -0.57273740815782
H          -2.52948949990981    2.26032213648427   -0.29305138097156
H          -3.63086502777167    2.66812202664290   -1.31326814656741
O           0.87011945728074   -1.58163695044322    1.74637895391587
H           1.59561328936231   -1.02255051178420    2.09510147702907
H          -0.09381380355712   -0.55040654253617    1.32644324273946
H           1.24565285700520   -2.02146183525139    0.94582645229542
N          -2.70825039010668   -0.41778002976536   -0.75597147554702
H          -3.18563774189962   -1.13360400013410   -1.29374968460078
H          -1.68979134284377   -0.17174260650403   -1.13680775536017
H          -3.21613673449683    0.51529555556445   -0.74842007553728
H          -2.54971882200735   -0.70345625881405    0.21128250459296
