    26
        -50.45699497  Gyration_radius:  2.42460964788 Dipole_moment: 8.039
 S          -1.73550933404088    0.65572895563162   -1.25307492131638
O          -1.39574399215022    1.33735643394589    0.01383640497173
O          -2.22759015954961    1.52130090539946   -2.26566137629312
O          -0.55321791676922   -0.13291586895774   -1.66150136923297
O          -2.83877933490945   -0.39295046221682   -0.87671537487077
H          -2.48562062588380   -0.83140807750417   -0.07599711389431
H           0.73298181005319    0.72011083245712   -1.47275062847948
O           1.61487507940831    1.16987004787509   -1.31053640352760
H           1.89749468453195    1.48803446357973   -2.16921308419884
O           0.08728058407248   -2.41938733324279   -0.54993052035970
H          -0.17920480591606   -1.66404462406388   -1.12325307371889
H           1.00867821289990   -2.24361731242240   -0.32633318117254
O           0.96529257105616    2.67224972053288    0.97128234572877
H           0.03773627676152    2.80172954703255    0.73693914589721
H           1.36337544806719    2.32093231567716    0.15816303292613
O          -1.74562323954257   -1.74083589405964    1.18545467859773
H          -1.03531242557866   -2.10740177735407    0.59210320952600
H          -2.37682138920503   -2.45143753663367    1.30991682010968
O           2.35247479761134   -0.89666286707407    0.21659452794143
H           2.20707685273695   -0.17582336388568   -0.43771247792887
H           3.26262991361472   -0.82646124417956    0.50722395561210
N           0.22354948507298    0.20663251419631    1.59935311198174
H           0.67391546911667    1.10428918212773    1.86000654425752
H          -0.53272932744652    0.55758852258547    0.87422572553067
H           0.92484694136710   -0.39770283169507    1.13869789983914
H          -0.24605557537599   -0.27517423775893    2.35888211208489
