    26
        -50.46782027  Gyration_radius:  2.50278700318 Dipole_moment: 7.197
 S           0.90152875600659   -1.37904753153323    0.62764339208934
O           2.04637585623385   -0.74268979097515   -0.01531955016559
O           0.49755795050119   -0.72737346203271    1.85139168344794
O          -0.21094637220802   -1.47413788957332   -0.33493402316727
O           1.29921351271160   -2.84681032137113    0.99153384574361
H           1.62686317982473   -3.20815888717623    0.14495516691032
H          -1.61742752265125   -1.00685011457281    0.56539488319794
O          -2.13192075950993   -0.61314663547873    1.29652835060939
H          -1.48832945677647   -0.63072538372016    2.01801460703661
O           1.67328260234390    1.55569714385788    1.17311263063592
H           2.10019426506083    0.86451427816218    0.62423579432730
H           1.20877447269841    1.00601101745964    1.82711826610291
O          -2.52261923845155    1.93693436014257    0.82179151744687
H          -3.42507704237737    2.02806226902300    0.51434906316205
H          -2.40710500903013    0.97450629994950    1.05380615201414
O           1.95970790257382   -2.89288277435060   -1.57924093244801
H           1.07132068342899   -2.75553841957619   -1.91990369120649
H           2.25019765222281   -2.02090527062710   -1.25629868779637
O          -0.35570765686472    0.35205913157616   -2.16276099343691
H          -0.22129086282624   -0.36854692798545   -1.49255080930625
H          -1.18019790077931    0.14234932492756   -2.60564808826629
N          -0.21781852022470    2.38478200629060   -0.43866997149914
H          -0.05888856366962    3.31514604657109   -0.80974353212600
H          -0.23192654276601    1.66481797405928   -1.20652458689889
H           0.57056411822150    2.11361025225468    0.24336484989523
H          -1.13632552363717    2.32832328489412    0.06835465373973
