    26
        -50.46085975  Gyration_radius:  2.35619175718 Dipole_moment: 7.921
 S           1.01962006286500   -1.30311262090641    1.06104989680899
O           0.49121607387239   -2.08971450015261   -0.06239035408909
O           1.33848315673476   -2.05149704314862    2.22449873868641
O           2.33385881850695   -0.62982518423367    0.52177094779891
O           0.09294576519539   -0.17902576039042    1.33618832352908
H          -0.70228514968331    0.98369692028101    0.59688989396329
H           2.04466760147666    0.07149309915379   -0.09485880969068
O          -1.11153760150583    1.72757773733691    0.07702408578425
H          -1.15348984113758    2.46908067802737    0.68337039789261
O           1.72015753419409    1.89713567756772    1.82996458510008
H           2.49321690559718    1.61161889003831    2.31880863007773
H           1.12413241166109    1.12177776697332    1.80851934904996
O           1.47405357055883    1.51626349180077   -0.87462933376894
H           1.88465877594877    1.97397453022920   -0.12212844759863
H           0.52354658931091    1.69177627918528   -0.75032019193589
O           0.31476857614721   -0.73427518562676   -2.25870100529189
H           0.90514071790800    0.01827956944842   -2.13272580349513
H           0.48956246678801   -1.35150753499161   -1.50024205838370
O          -1.97901619024558   -1.89061101246157    0.61663391064007
H          -1.07015218992890   -2.18910359644533    0.35897507950606
H          -1.81786742922137   -1.36097950884107    1.40437854301908
N          -2.11553309255357   -0.25232255999266   -1.42973228993316
H          -2.88916115499467   -0.33007622020251   -2.07985702850405
H          -2.05010855136733    0.68505944810718   -1.00444373625609
H          -2.19247503874525   -0.95928662077076   -0.62478459932831
H          -1.16840279736128   -0.44639673997003   -1.90325870357776
