    26
        -50.45821490  Gyration_radius:  2.62129674646 Dipole_moment: 2.931
 S           0.98359567293541   -2.36285079111634   -0.45019422882146
O           0.02011374335731   -2.10477605306114    0.61347554008356
O           1.78432077489940   -3.53391320119090   -0.31040640388887
O           0.05131904685077   -2.59915035987729   -1.75386225112457
O           1.73388192432960   -1.14201302357299   -0.75692830342962
H           1.60276448022856   -0.32441455332249    0.65016856629819
H           0.57892348698492   -3.20326743189107   -2.26615996717107
O           1.47243217850325    0.17574958970233    1.49078234056723
H           1.31302425911774   -0.50249758898567    2.15016563784150
O           0.36875119848916    0.87110183027068   -1.78668297112436
H           0.97890668126458    0.12948061853317   -1.58461711724723
H           0.69096310324167    1.61107150388236   -1.24137997773300
O          -0.68119995625914    1.89820132592739    1.65586323016866
H           0.00410382615423    1.20360901034169    1.66749692185934
H          -0.30421551474859    2.60966239798334    1.13041240677641
O           1.62706914646117    2.54669301012758    0.02287827544266
H           1.79652867903538    1.80746063094971    0.62767791646657
H           2.47933759759978    2.82514470895920   -0.31536877667000
O          -3.04991531530889    0.92175179257396    0.98042287467819
H          -3.41409228767926    0.50959333557046    1.76525701721166
H          -2.23883643126933    1.40009892143764    1.27563831405804
N          -1.58286922024801   -0.54561202142973   -0.71628119082242
H          -0.90516530142183    0.12558807746578   -1.18884857161690
H          -2.04817950760447   -1.10410443186633   -1.42451540522930
H          -0.99407957655885   -1.19486856853235   -0.11316620147945
H          -2.26748268835202   -0.01773872887927   -0.12182766508950
