    26
        -50.47267094  Gyration_radius:  2.48499924467 Dipole_moment: 4.096
 S           0.68289227837091   -1.39450565451442   -0.34964538647548
O           0.75571387123478   -1.02154911034112    1.06664397943774
O          -0.64831186151618   -1.20302708610712   -0.88275449075140
O           1.69907294987448   -0.66807635344330   -1.10632632932408
O           0.99856893069076   -2.91835253830801   -0.45264961300697
H           1.89914321577834   -2.97898411960883   -0.08038263432875
H           1.44585769938568    0.91615370525812   -1.11453258089225
O           1.25484089212817    1.88777366540425   -1.03644579756987
H           1.96133042566224    2.33519904413585   -1.50494330712902
O          -1.40082820838511    1.23915508570741   -1.80278432330057
H          -0.54243462295163    1.68077919095964   -1.76234827140863
H          -1.20507374531992    0.29737982202922   -1.65130189073651
O          -2.50602130037864    1.54323756244664    0.59703565988092
H          -2.77883240966479    0.61482603417025    0.76665327880327
H          -2.30219356841616    1.56709041885246   -0.36795508584667
O           3.24499526780300   -2.04562601545584    0.63981749377267
H           3.18083113181692   -1.43697267424310   -0.11016497821216
H           2.63773602239329   -1.68609163353274    1.30016324385843
O          -2.74396770680306   -1.11420956419036    0.75478349426355
H          -1.94011884962916   -1.23642918383393    0.20757767323479
H          -3.44107881826366   -1.59796888855040    0.30833420009245
N          -0.04001604972919    1.46098211192217    1.33896068905759
H           0.22490161608706    0.43455213860144    1.34039587656074
H          -1.11293846930963    1.54065809088479    1.11225984065785
H           0.18789495954273    1.89313882016410    2.22748007049880
H           0.48803633959891    1.89086713159568    0.56212920886273
