    26
        -50.46777253  Gyration_radius:  2.60744472529 Dipole_moment: 3.714
 S          -0.63914876055896    0.67933812463494   -0.63288629276544
O          -0.00707113227646    0.83483909391786    0.68805175955442
O           0.26758173666566    0.04930302299799   -1.57021342421414
O          -1.89299683676428   -0.06429333201373   -0.50629202097967
O          -0.95739429518653    2.08887958781893   -1.18296526479432
H          -1.66413687132245    2.50339733764041   -0.61235851417762
H          -1.35519634577642   -1.64673666194211   -0.71738076056560
O          -0.74983747531518   -2.41532270937857   -0.81958829288872
H          -0.27055755006090   -2.21734326523598   -1.63043273848486
O          -2.88955238401659    2.96000040448525    0.32770730324957
H          -3.70996000535609    2.76160077974283   -0.12893086915047
H          -2.81740259160715    2.30434655040940    1.06550903711653
O           2.86199349609885    0.34217422024529   -1.49543091952216
H           1.87487145456365    0.31924700022370   -1.49488720606872
H           3.11988128164990    0.25629503279807   -2.41484521489898
O          -2.40929502894556    0.89168994813918    1.90760902637715
H          -2.49064400909606    0.34409529653642    1.10378811112830
H          -1.45513985944707    1.04832545007016    1.95793981705585
O           3.44383429221136   -1.46373057572309    0.32523919846604
H           3.29159886842876   -0.82245959851911   -0.41641710301480
H           4.04970878967853   -1.02334330108429    0.92381249479152
N           0.88831003217089   -1.56470271341203    1.08780588638759
H           0.58479484488185   -0.54140971140141    1.01946512827555
H           1.91059935635258   -1.62129171079427    0.83176190770100
H           0.71844286237680   -1.93432520671383    2.01739348230408
H           0.29671611069001   -2.06857306340753    0.36654548907241
