    26
        -50.46358849  Gyration_radius:  2.57087667292 Dipole_moment: 2.071
 S          -1.90331124319914   -1.01774279102932    0.55655410278915
O          -1.84421432441282   -1.00928219686936   -0.89547730979004
O          -1.04080507895173   -2.00227373826479    1.16429185834541
O          -1.67044438635954    0.32209891163327    1.09852268493072
O          -3.39150269760697   -1.40785609799829    0.93325827596791
H          -3.91836527284725   -0.92421250813906    0.30291236175559
H          -0.10372351244810    0.21772015950669    1.56526967878505
O           0.85382377657119   -0.01538869721850    1.62198464901436
H           0.86049920693509   -0.88329748166410    2.03643136260821
O           2.29739482714132    2.16875071534197    0.63962884942917
H           1.79416278199143    1.48495392109604    1.10757005055387
H           3.17907456503656    2.16612592594800    1.01367885479253
O          -1.17702091799312    2.34433994629654   -0.59707070130943
H          -1.41977746093412    1.57666177675052   -0.04227032512662
H          -1.11207127483497    3.08808352913109    0.00500257155191
O           1.18241767672483    1.94009762579725   -1.87190484098694
H           1.72647525291737    2.20647912767967   -1.11137295162520
H           0.27338047587828    2.20214428429531   -1.62058058630583
O           0.89398296930667   -3.10145105036125   -0.35644693822568
H           0.75167878431910   -4.04569950068085   -0.42828079988403
H           0.17269191800182   -2.76836635905976    0.21431242662936
N           0.73844766103102   -0.51237154405013   -1.09059261331779
H          -0.29669936351785   -0.68353933511632   -1.17981397585573
H           1.00511828671497    0.38882111546090   -1.59721392098586
H           0.92732548039872   -0.37487208687196   -0.07629315234052
H           1.22146189012908   -1.35992365162146   -1.39209963141966
