    26
        -50.45675606  Gyration_radius:  2.54648945111 Dipole_moment: 6.653
 S           0.86298005436572   -1.23093500983697    1.97012797589380
O           1.31457297510399   -0.11690787601694    1.13221411636662
O           1.84195803061640   -1.72551678834752    2.88296690619606
O          -0.28968597760341   -0.58822185178549    2.90635646381729
O           0.17891571665268   -2.22436407803949    1.15763385318234
H          -0.80065679019352   -1.72742053749319    0.13598795902001
H           0.19302424674984   -0.63540494513357    3.72337642412537
O          -2.20945411122927    0.59165736800074    1.21378982221517
H          -1.75874271654038    0.21226115240829    1.97882603012130
O          -0.05873347332332    2.13047482642266    0.63981803545462
H           0.55384617006913    1.40025700914458    0.85363847426195
H          -0.93777571569192    1.77996695716410    0.89090848511770
O          -1.48065283595531   -1.43555795884093   -0.56055418046787
H          -1.99905683131340   -2.22087502843415   -0.74340990127892
H          -2.13076537154865   -0.07902959073857    0.51756732317621
O           2.48198918024449   -0.51089418051583   -1.12679588084606
H           2.09980741521550   -0.45789558561796   -0.21039117457124
H           3.13140624242156    0.19375422547246   -1.17230653033625
O          -0.34125001656580    2.37919908110349   -1.91376278012155
H          -0.15107671112350    2.37684989778193   -0.92456859147671
H          -1.22093980260433    2.74903854908760   -2.00201131700263
N           0.13723776223226   -0.17970755232836   -2.29348946446994
H          -0.52709342914203   -0.70653605751225   -1.67469307388077
H           1.11610436025771   -0.32556900068965   -1.90443972161188
H           0.08097776999784   -0.50723034264129   -3.25136249538731
H          -0.08693614107700    0.85860732738544   -2.22542676752427
