    26
        -50.46330044  Gyration_radius:  2.62381289459 Dipole_moment: 2.366
 S          -0.41437085929629   -2.20591057140782    1.34984462299292
O          -1.75710521027197   -2.66870220295768    1.12033485785088
O           0.45410917682953   -2.24826824277973    0.19517191236254
O          -0.38576755906533   -0.86575424714491    1.96729174892089
O           0.22545853520337   -3.18237358461498    2.43586085418844
H          -0.53474707279217   -3.49159710200354    2.91990046087434
H           0.64537810667858    0.31758898889111    1.69176242613937
O           1.23187520728305    1.08587201739894    1.45706979773304
H           1.58772217206519    1.40603488939266    2.28707808859365
O          -0.04404927624573    2.68516064496057   -2.34353791865044
H          -0.39879361809928    2.75430166377578   -1.42043005722505
H           0.75050758680105    3.22030970249887   -2.36639107459535
O          -0.80436317399352    2.43573610737348    0.17062941591958
H          -1.47097704531499    1.73916050209253    0.15981141708963
H          -0.04409400698993    2.05931827527419    0.65198106434100
O           2.19523295263129   -0.46882612706678   -0.58321839515897
H           1.74313836068807   -1.27452496140876   -0.24260996831466
H           2.10103685145178    0.18321653537944    0.13241324093634
O          -1.82238891400596   -0.24728553690945   -0.11364426509787
H          -1.31118258415848   -0.38763418306637    0.71607703149805
H          -2.36632270045847   -1.04289862644700   -0.14563636705772
N           0.07848466754455    0.03619471406935   -2.03205090408846
H           1.00919213888595   -0.16055187607175   -1.52544355526815
H          -0.68793998382591   -0.14264327313280   -1.33759975323987
H           0.04380443856355    1.04722732571744   -2.31658480037346
H          -0.02383816008732   -0.58315082181970   -2.82807987038391
