    26
        -50.46899118  Gyration_radius:  2.48394590554 Dipole_moment: 3.370
 S          -1.29236082610395   -0.51146458201140    0.68334967682488
O          -0.74067497099509   -0.75908009644291   -0.66664778897356
O          -0.79343114480851   -1.47214809503389    1.63514461646839
O          -1.01444054867572    0.86851571144547    1.07748248063042
O          -2.83170070384229   -0.68368468535762    0.57345154498600
H          -3.11738327500654   -0.03239245018080   -0.10947288500619
H           0.38930916040238    0.73362274044279    1.97188638131756
O           1.25840683909622    0.39836590285923    2.28889646653329
H           1.03725961873695   -0.38907616136554    2.79529545088679
O          -0.59075703047172    1.73125853158834   -1.38195336003458
H          -0.69169446644927    1.91392454977091   -0.43087360320039
H          -0.60512552244098    0.74735333093415   -1.38300942743714
O           1.41491408750533   -2.87613643446073    1.00646929903100
H           0.58282572706147   -2.41837198908106    1.24364032588740
H           1.26482822345112   -3.79950202020535    1.21128264643054
O           2.11641000211402    1.72104111688671   -1.66178126892320
H           1.14154787762540    1.83295150186042   -1.70332256695029
H           2.46884410914845    2.54389870301508   -1.31962785930454
O          -3.25801549396276    0.99180691179372   -1.43669926649317
H          -2.41990968571627    1.48363421169636   -1.52426925966934
H          -3.32982793965823    0.43543811301256   -2.21576886554831
N           1.83531557797008   -0.49346276144787   -0.14624678391557
H           1.76990428800604   -0.12819287297811    0.84738190287682
H           2.35312582280065   -1.37164058717851   -0.13892965833618
H           0.84307844900430   -0.70910645759525   -0.43612741834906
H           2.20955182520507    0.24244788799575   -0.77955077980120
