    26
        -50.46082455  Gyration_radius:  2.39847706003 Dipole_moment: 3.779
 S          -0.33485794006248    0.40870944586135    1.06657467664602
O          -0.48804158469405   -0.68849245650475    0.10334250680090
O           1.01861363794239    0.44391793315756    1.58767034074558
O          -0.72090236683136    1.67771290352592    0.44693754794085
O          -1.33395141846873    0.15630123439461    2.21954181784109
O          -0.81721978796521    0.06844060702558   -2.40030074838243
H          -0.76217833208051   -0.35735844927635   -1.51251413576480
H          -1.67853475987007    0.52267116821740   -2.37121582954221
O           1.59474549934624   -1.77462271474621   -1.14389873400112
H           0.82339018397707   -1.51624866478747   -0.59773907489137
H           1.25704935855748   -1.89948795326152   -2.03379111140705
O          -2.82437809521241    1.43159046234665   -1.22366697391967
H          -3.63759815515382    1.24174736429880   -0.75501811577678
H          -2.15084121891113    1.61453333234901   -0.54061337317924
O           2.53614756247289    0.63735427928286   -0.54574120062856
H           2.14428744620088    0.63546893247932    0.36024796381534
H           2.43115693233421   -0.29370139202403   -0.85309904662984
O           0.71223101387138    1.91105353459920   -1.63825309425033
H           0.15838055141051    2.05247700233662   -0.80049676125163
H           1.60164759589680    1.41023084843388   -1.25366846835271
H           0.14263769963962    1.18141720457120   -2.13758899445045
N           0.10043758495475   -1.90347744039211    2.86999959072711
H          -0.96079177510116   -0.68080146791641    2.62805172389667
H           0.87895408275779   -1.31377504255020    2.58850247633216
H           0.31584694704067   -2.33341972579644    3.76039841852386
H          -0.00623066201148   -2.63224097561269    2.17633858919662
