    26
        -50.47114371  Gyration_radius:  2.44207666424 Dipole_moment: 3.991
 S          -0.10067546805816   -0.01444192164921    1.18868196125680
O          -0.17681500030787    1.24581741336127    0.44214534135872
O          -1.39593664970776   -0.65665617313124    1.29210593467544
O           0.89956042520056   -0.89414169911194    0.57621442178619
O           0.33810485668567    0.30720041396084    2.63862061422254
H           1.28872689981971    0.58718329916761    2.68080284692381
H           0.03109207860508   -2.19309163438474   -0.03645808239017
O          -0.75222131417621   -2.71566905301513   -0.32289304531752
H          -1.37666883076097   -2.55434081851543    0.39616194531802
O           0.38666509108835    0.71541833125816   -2.07541214234969
H           0.14353959707784    0.98322465306426   -1.15627796459762
H           1.32686266477103    0.51843501131304   -2.04155396970481
O          -2.83522793607153    0.60773349766008   -0.45834421138718
H          -2.44644695872677    0.13383417212388    0.31666610870200
H          -2.35565929132800    1.44177789698525   -0.47533313363583
O           2.51894700599321    1.09245012623801    0.03575894570495
H           1.75056860717951    1.67957913424187    0.05039580811676
H           2.12108941001158    0.20389342953040    0.15619049470125
O           2.80746154227143    1.19713457912276    2.66713241224310
H           2.95913053865083    1.18976556338741    1.69321345323025
H           2.84105131396626    2.11278506772175    2.95132149056067
N          -1.60879707458848   -1.01465147954175   -2.13708053638979
H          -2.04236901470174   -1.35308136313481   -2.98844582659529
H          -0.76286650469178   -0.41935222946017   -2.32852706592742
H          -2.25944684810116   -0.38997788061212   -1.57182059464150
H          -1.29966914011210   -1.81082834658614   -1.49326522587624
