    26
        -50.46572209  Gyration_radius:  2.46797792783 Dipole_moment: 3.866
 S          -0.99531033493569   -0.63956876385779    1.77834743720911
O          -1.61871342576957   -1.08176740270605    0.53123393636490
O           0.26928899216577   -1.27360642827080    2.02641097818498
O          -0.93423823495831    0.81862796533028    1.84749955406564
O          -1.97576917880355   -1.08090208692589    2.93985940976027
H          -2.72015901749717   -0.50115906034545    2.81614768334827
H           0.67063287935675    1.09586492210101    1.53758435071889
O           1.60463874487678    1.10504363300795    1.23194563411948
H           2.01772663892821    0.35595131376969    1.67324069251667
O           2.25621312331043   -1.74563622023987    0.24369539048346
H           1.91781055932487   -2.44919431824475   -0.31406641383665
H           1.60174880142829   -1.66458525585386    0.95923090542529
O          -2.12391774033500    1.33095580287676   -0.45613404499353
H          -2.17369922865611    0.36152035064247   -0.40278414844769
H          -1.72330324614196    1.54390072595780    0.40508690208702
O          -0.38782858046907    2.13155721100893   -2.26860929430893
H          -1.11698322886031    1.83727444128763   -1.66078834457274
H          -0.31788366813492    3.07988332503603   -2.15036195414041
O          -0.06983782885907   -1.81963109951174   -1.42512038769399
H          -0.63102426462553   -1.64511500933617   -0.62940614779187
H          -0.67839745087515   -1.87988835341735   -2.16389131616719
N           1.43693862623778    0.43014704627182   -1.32159482117738
H           0.95508924050949   -0.50180009396991   -1.35830652052185
H           0.82563848956687    1.14750220495235   -1.78545720051665
H           1.56257624016690    0.68973283582686   -0.29408961465433
H           2.34876312301568    0.35489233463607   -1.75967265545298
