    26
        -50.44083899  Gyration_radius:  2.58722907207 Dipole_moment: 4.868
 S           1.74718083682805    0.00931448591269   -1.79580399474102
O           1.37631445885307   -1.29195760231948   -1.28917717050054
O           2.14688770152440    0.07473197837470   -3.15293196916939
O           0.54464399700347    0.96436569743119   -1.52108121896832
O           2.84265122797794    0.61076163582331   -0.89469594264672
H           2.47927502722415    0.55094214448611    0.03956350179536
H          -0.28260818916958    0.41365366553582   -1.40932999787661
O          -1.64336300482783   -0.37213337903444   -1.22373769905072
H          -1.98923662311658   -0.63880813718883   -2.07657321967486
O           1.80548835106161    0.26580972469174    1.43475959621410
H           0.91305841758617   -0.13838375518602    1.32007375455543
H           2.34058958751545   -0.44769098520579    1.79665717621415
O           1.74191828238101   -2.61714586748293    0.96738459813036
H           1.69628681634142   -2.17387975654536    0.09272469058707
H           1.95275940435824   -3.53398464356286    0.78822674970456
O          -1.05119395168860    1.61618848347003    1.90278418157925
H          -1.03520142537111    0.64970584556930    1.92690728345254
H          -0.14023566185146    1.88859311195620    1.76679330928013
O          -0.51536656318434   -1.07854729116148    1.23121671077741
H           0.05197648608001   -1.86705145335162    1.25651400734031
H          -0.88876846827401   -1.03619059664134    0.33817854904946
N          -2.90064654843249    1.71111065303513   -0.29049382580742
H          -2.32188500513390    1.84601560282186    0.54247029075164
H          -3.86571722963687    1.65596319086626    0.00864713552766
H          -2.79531240975798    2.53187174514485   -0.87307920192018
H          -2.20949547421245    0.40674549267870   -0.88599729451944
