    26
        -50.44652576  Gyration_radius:  2.49672749048 Dipole_moment: 4.390
 S          -1.93043581242611   -1.20172167018670   -0.66252043596019
O          -0.91672586100953   -1.62187567180660    0.28080144363218
O          -3.11412458524609   -1.97436724271346   -0.71028274605271
O          -2.27789963530630    0.28376442873878   -0.35675611811382
O          -1.26415264078418   -1.13043201391921   -2.05613667913314
H          -1.17953759392501   -0.16225583809152   -2.36986873683205
H          -1.62175646137200    0.69295382417961    0.30091840406230
O          -0.67709500508513    1.41439026588917    1.27516127625564
H          -1.18716167311687    1.93898536759457    1.89372935731547
O           3.01378063960723   -0.25660801291551    1.13411574890856
H           2.62937986276399   -0.74488393419757    0.39082866817423
H           3.20799045337003    0.62171899336128    0.79999564871336
O           0.98606649049364    1.54295969299584   -0.92848656647380
H           1.25345718832430    0.60310769697122   -0.94479480845857
H           0.51255779335753    1.66664532490155   -0.09216102863056
O           1.37132371281843   -1.15517323781705   -0.92442605227751
H           0.55529275695674   -1.39903271999511   -0.43100427609386
H           1.27313406428048   -1.54643704290027   -1.79497576857622
O          -0.99072868528285    1.32021920214550   -2.64399352223931
H          -0.18556249810548    1.53258547823162   -2.09702420724264
H          -1.73590058020517    1.74731359301017   -2.21324490529572
N           0.49663166026911   -0.48057320516672    2.52015614085797
H          -0.19793571333526    0.66412330392081    1.83095775485007
H           0.06589633992316   -1.25806361483916    2.02832041346100
H           1.48243992921238   -0.45319010261913    2.25511185332396
H           0.43106584383875   -0.64415288476147    3.51557914184112
