    26
        -50.45971330  Gyration_radius:  2.45359911135 Dipole_moment: 7.636
 S          -1.63189981709474   -0.63796338401316   -1.64096962374939
O          -0.77963634526078    0.36643212569707   -2.30769198673452
O          -2.99357754290173   -0.61553375795203   -2.05087877718952
O          -1.01445892461387   -2.02988330679900   -1.96885924786141
O          -1.47594179587574   -0.47371396613944   -0.17115079041930
H          -0.77347282474741   -1.53392118693934    0.78533180447171
H          -0.07716693672810   -1.94949539208186   -1.67682311136474
O          -0.22961355353877   -2.11026191482405    1.38656599391653
H          -0.77726724651213   -2.86555055303893    1.60209931108425
O           1.35795107212597   -1.80325575454089   -0.83771538981591
H           1.75058429437432   -0.93526586594994   -0.65849278254318
H           1.00984755628443   -2.10917744306774    0.01672303959828
O           0.79368913891531    0.25462409387694    2.33231577309893
H           0.03335358432157    0.82483768830163    2.14036517820383
H           0.47384613533102   -0.65505123556447    2.20170147282409
O           2.36385399455904    0.58339240279051    0.27952374202472
H           1.82540679028562    0.44432951706327    1.11315612699647
H           3.28176977770858    0.62068014367061    0.54964972796820
O          -1.34217151431755    1.68911942124023    1.17818991679119
H          -1.47298402369885    0.83633013702596    0.66812046007187
H          -2.22066016971198    1.99793429698324    1.40242850567674
N           0.39770542158853    2.05574762018763   -0.86376939562575
H           1.27776021286540    1.62079632355670   -0.53231480771617
H          -0.23289125367974    2.19687789862253   -0.05372519931833
H           0.57163492101586    2.91789010580462   -1.36656524262639
H          -0.11566095062962    1.31008199609406   -1.52721469774535
