    26
        -50.46798834  Gyration_radius:  2.52135135115 Dipole_moment: 2.300
 S          -1.49554784680556    0.96277399326561    1.20371681297672
O          -2.16524349180029   -0.22774794909358    1.66527795216379
O          -0.10633045966410    1.04064805367550    1.62435040628773
O          -1.62262985182093    1.18724970776820   -0.23365031021006
O          -2.24827573445677    2.18448818936930    1.88097973754334
H          -2.47260515903711    1.80000277390702    2.72101395888250
H          -1.30766601536126   -0.06540302168872   -1.20644114559026
O           1.44758995089655    0.30530053571803   -2.09009650918384
H           1.15956395981570    1.23283355197989   -1.97750826229897
O           0.37375753943286    2.61456458358611   -1.22297415967575
H          -0.00727251006371    3.41224951778584   -1.59194773669733
H          -0.36205485558176    2.14375812906244   -0.77509830152228
O          -1.03953944003908   -0.82809224446808   -1.77759270622776
H           0.62351460889382   -0.20748420055971   -2.16152410747223
H          -1.76673534416862   -0.97498919385236   -2.38444464663144
O          -0.87207552159538   -2.29736575172742    0.57576211740849
H          -0.90381029393101   -1.96696830531666   -0.33616701237675
H          -1.37424503056810   -1.64143671542251    1.09784398027155
O           1.67619844296806   -2.61031849180916    1.09613438620181
H           1.94212454252394   -3.32362313537192    0.51382635941635
H           0.68591017129900   -2.55852048469737    1.02471330297828
N           1.98839086536751   -0.03627674940773    0.47204527974877
H           2.83839448872449    0.41839647900927    0.78620411804456
H           1.98399915878612   -1.05444406594942    0.73673835744847
H           1.15523730200193    0.42018066993519    0.94023959838884
H           1.86935052419165    0.07022412428543   -0.58140144987557
