    26
        -50.46115064  Gyration_radius:  2.40245189622 Dipole_moment: 6.300
 S           1.33924916051219   -0.39343046856079    1.16324409961174
O           0.27420910344731   -1.36447345284185    0.88871386084152
O           1.62414421808609   -0.22084427064989    2.54875859944650
O           2.60589937209676   -0.93315283972073    0.42112399586157
O           0.99966916528212    0.88512706041084    0.48869285711858
H          -0.24043616491190    1.59274798141962   -0.36797828327019
H           2.24893293003988   -1.17077768569399   -0.46255665517108
O          -1.02823263525680    1.84602004129355   -0.90159465158761
H          -1.59839661405254    2.32361239063225   -0.29520697249587
O           1.77103290203466    1.37723364283818   -2.01132819141378
H           1.01678515460040    1.91018683236364   -2.27753292625519
H           1.70940875989703    1.31166490352757   -1.03588272165708
O          -0.94927663143164    1.01702638778991    2.33071296562896
H          -0.20133848516263    1.01503033676232    1.70775410596966
H          -0.54408975434727    0.77266200057241    3.16719118073961
O           1.51119782103966   -1.25471592767921   -1.99702009480168
H           1.59459104523663   -0.28217021719241   -2.15387997715412
H           2.16247030560732   -1.67250467200875   -2.56386524864571
O          -2.61889217462091   -0.97129214847146    1.55357757694741
H          -2.03333483895973   -1.68771990872642    1.81791063619161
H          -2.16453948257033   -0.16553618766747    1.88369328845201
N          -1.51652074765463   -0.79240195184204   -0.83010462454813
H          -0.63151596890834   -1.07512496485153   -0.27227459037660
H          -1.65374191986706   -1.38571313121855   -1.63929347155384
H          -2.25197134824054   -0.89971323393467   -0.08556251391349
H          -1.42530318187385    0.21825948345795   -1.07729223394907
