    26
        -50.44077183  Gyration_radius:  2.62449058459 Dipole_moment: 3.915
 S           0.95708938588746   -1.55641158054168    1.41484269987525
O           1.33864697817188   -1.11942783302289    0.09124353190070
O           1.95060662854274   -2.17807190595035    2.20543319320089
O           0.38983279146881   -0.28463634242489    2.16970739661107
O          -0.27792747249700   -2.45132260159906    1.33239634342239
H          -1.04331169301460   -1.95937001456642    0.84321992074748
H           0.57512162656252    0.51833795393744    1.60409374440473
O          -1.32454887918995    0.95595876221211   -1.16616791503621
H          -1.91891566747890    1.47787642038827   -1.70607385523550
O           0.88337902790691    1.43647645693705    0.30969287346032
H           1.24806862914465    0.58509629127528   -0.01034037423315
H           0.00999770849706    1.50068411998044   -0.12602993940136
O          -2.31612614639720   -0.18444984364431    2.86209069896964
H          -1.34891230392171   -0.12293135008798    2.85031409905780
H          -2.54135495450823   -0.85395257334486    3.51075474500971
O           2.27936031496458    2.23725147021670   -2.01529055037193
H           3.20392986677359    2.44660115398952   -1.87654747647727
H           1.86610002031468    2.21531620769504   -1.13802884114376
O          -2.16892914014698   -1.12245693243589    0.33235232038679
H          -1.88622606171042   -0.37887245457056   -0.24118473431845
H          -2.46949518882525   -0.71867470276530    1.17137420282082
N           0.57271108575799   -0.14191561076789   -2.57687259168074
H           0.47237031076668   -0.65124009007443   -3.44473010242657
H           1.24571513251588    0.60760945096601   -2.71971787493014
H          -0.65944825013364    0.51405809176635   -1.79620961683526
H           0.96226625055045   -0.77153253356694   -1.88032190777044
