    26
        -50.47167185  Gyration_radius:  2.43147139342 Dipole_moment: 2.756
 S           1.44509895674959    0.96654279205300   -0.92278815176645
O           0.36578555001076    1.34972835967183   -0.03407596623236
O           1.14640367935187    1.17918987723326   -2.32085660495156
O           2.64659473797612    1.95005928419772   -0.56501490401494
O           1.93814586999290   -0.37892207870599   -0.65086195355715
H          -1.27899504958286   -0.23497825339856    1.94446814762924
H           3.23283078734866    1.85295650434392   -1.30862215234742
O          -1.71765946731981    0.46688157883750    1.43389310430877
H          -0.98665245334744    0.95069862623274    1.00434613933604
O           0.00049501133396   -2.16479022548533   -0.34577169082577
H           0.76873093103558   -1.60090920783472   -0.57776056447877
H          -0.03446567868241   -2.13775541253959    0.62737631551690
O          -1.44583710593339    1.38816512255336   -2.32031710489721
H          -1.52636090747575    2.10689437752813   -1.68772466609489
H          -0.47203245272285    1.29504669974681   -2.45857000621812
O           1.93534284933203    0.15655689171174    1.91302077328899
H           1.54822303275155    1.02908932707874    1.78883163374110
H           2.11785315177222   -0.14192214900162    0.99773088977709
O          -0.04747452505131   -1.52060550954856    2.35303619805104
H           0.73270230343005   -0.90965831769050    2.26274716112423
H           0.12227833802313   -2.06119395032002    3.12515358598349
N          -2.12792636774378   -0.72463003295592   -0.86907270274644
H          -1.89808675877106    0.04986444577819   -1.55393084263694
H          -1.29627173969691   -1.39048902214307   -0.79637767129751
H          -2.18941492574887   -0.26593258077790    0.08791151390849
H          -2.97930776701318   -1.20988716657385   -1.12677046055836
