    26
        -50.46297851  Gyration_radius:  2.58346234872 Dipole_moment: 3.178
 S           0.99471860990622    1.98144689247235    0.54204008579050
O          -0.15856909728820    1.12074929467191    0.81309096410476
O           0.70368086420633    3.37708595572656    0.48839622735867
O           1.95467524915302    1.79108467406039    1.82252542350377
O           1.74024427266136    1.45006699945803   -0.59669761735202
H           2.10716606138200    0.01844157023461    0.15190925096389
H           2.01320974515606    2.69076819053933    2.12661193829663
O           0.25472895168002   -2.46221793041526    0.33045110493290
H           0.62572665096180   -3.34345482822509    0.27840525798595
O           2.20043681692568   -0.74628175578626    0.75919896454613
H           1.01086767073885   -1.85180048848511    0.53221132713267
H           2.23922459113887   -0.34393670090051    1.63059294659621
O          -1.67653196896750   -0.95024402173745    1.80649602832683
H          -1.17932469373990   -0.12535222018624    1.68716297459846
H          -1.08407164066144   -1.64964092391471    1.49724925382541
O           0.62134457880188    0.83215378702747   -2.92802423704848
H           1.28574011265320    0.81830145397382   -3.61785862073417
H           1.07311077274861    1.16173071382526   -2.12116748811964
O          -3.40233304404823   -0.66759021427633   -0.22080561275796
H          -3.94435973665343    0.10584130896279   -0.05995806298695
H          -2.92463871076780   -0.84689528965120    0.62498355878845
N          -0.89937445693658   -0.48304327426343   -1.14309648696924
H          -1.93969997267995   -0.53768694564546   -1.09426987732595
H          -0.52047491596989   -0.16159268827889   -2.04730278793014
H          -0.59497970988279    0.21446198518185   -0.40702489717884
H          -0.50051701050065   -1.39239554433954   -0.85511963836715
