    26
        -50.45298110  Gyration_radius:  2.68111822491 Dipole_moment: 7.263
 S           1.17657328558006   -2.04974756816043    0.19578921229813
O           1.25122062123558   -1.25524662992323   -1.03492880474047
O           1.35971352900013   -3.44872382127099    0.04662535335636
O           2.35745288257804   -1.50571895469499    1.11705722754522
O          -0.05451924688382   -1.67705491309908    0.93243101475998
H           0.11273126530544   -0.84559794102028    2.28834790583233
H           2.29171630556009   -0.53883806316581    1.10214932435192
O           0.31955966334364   -0.25522452566802    3.06120719339613
H           0.77091058671776   -0.81946399358060    3.69158223674306
O           1.92996076205363    1.19950540453651    1.58761605515416
H           1.30029622038835    0.78218181014732    2.23336311969807
H           2.64760595221788    1.57176410199386    2.10164692646436
O          -2.57371106940597    0.27244249672297   -2.43932755049597
H          -2.42414261665862   -0.04615192282941   -1.53205281324837
H          -3.52113199373515    0.36167654914958   -2.54870679182079
O          -0.51354461895399    1.93755133198199   -2.99130712613508
H          -1.33072034053859    1.40386193206161   -2.91358409914244
H           0.01472241069388    1.50713368504800   -3.66646800018878
O          -2.09486029719122   -0.28471779895544    0.22623622672898
H          -1.37301988605462   -0.93943572771222    0.43001311523825
H          -2.68754295949196   -0.31456105558743    0.97865353386408
N           0.20735740472875    1.02281244886456   -0.56561786491537
H           0.65302841836099    0.05941840732478   -0.81760828274358
H           0.06010297856017    1.55964033605418   -1.44836594514242
H          -0.70706918385349    0.81726583362037   -0.13846508633726
H           0.82730992644316    1.48522858817134    0.10371392948724
