    26
        -50.47132453  Gyration_radius:  2.42086460762 Dipole_moment: 3.201
 S          -0.59610989476407    1.73648531111401    0.66938939372883
O           0.50373143447325    2.63863889367070    0.91073968729953
O          -0.62123871681597    1.16605835331451   -0.66409581018816
O          -0.73307836028314    0.71249312451590    1.70056695626564
O          -1.92125205122309    2.62065572088079    0.76173163625351
H          -1.71100185605283    3.24488217175162    1.44849236472256
H           1.18185462997460   -1.02051044504362   -1.62295619370873
O           0.28334166840848   -0.98415379732769   -1.99094675639413
H          -0.08120004213917   -0.14084724828266   -1.65524167443308
O           0.76406762506338   -1.48414222973298    1.56278921507972
H           0.28599139832515   -0.65707334487293    1.78163834717087
H           1.48297966883609   -1.21720763796099    0.96080325979226
O           2.14865775282675    1.84986067287427   -0.96495486590161
H           1.64826307246324    2.22970256392044   -0.20868487172827
H           1.52367780680888    1.86180771913924   -1.69475546622532
O           2.52089161418035   -0.68228496492505   -0.40174405833210
H           3.46141398946286   -0.86025449594774   -0.35969175603102
H           2.43233712321136    0.29631625072793   -0.56385996032734
O          -2.72925498939439   -0.32450390809515    0.37301926458117
H          -2.11156310589773    0.04959975122828    1.03875932066101
H          -2.64462251872624    0.28360505444953   -0.36878519225453
N          -1.03512517476768   -2.30502044912482   -0.14755708900570
H          -0.56135070368509   -1.94579548503852   -1.02862310120699
H          -0.32062727149550   -2.14012758178441    0.63401218302873
H          -1.84549263080447   -1.65529706031781    0.04670000209219
H          -1.32529046806067   -3.27288690926436   -0.21674482508163
