    26
        -50.45659730  Gyration_radius:  2.51767129376 Dipole_moment: 4.124
 S           0.49392320839804   -0.19985437147008    2.26158355180084
O           1.56642536242708    0.26685334862054    1.39938407519143
O           0.88269215853840   -1.05724654005327    3.33560861341506
O          -0.13721140376692    1.10617224021116    2.95591975963130
O          -0.59018394764912   -0.74482390573535    1.43211218237314
H          -1.97010979034488   -0.76514721149897    0.39487607494240
H          -0.04770890007829    0.86036126057981    3.87042818949397
O          -2.58846592090327   -0.88320900148252   -0.35123969620331
H          -3.45962745905781   -0.66210799469753   -0.01985319096551
O           2.53183437803429    1.07366513971226   -1.00630894659747
H           2.39745045601308    0.70269817730066   -0.11788317736013
H           2.10525872718911    1.93515724066236   -0.98303030337352
O           0.90194371547255   -0.40980530147853   -2.47234839551206
H           0.10414001802948    0.18577665410471   -2.45565141774203
H           1.62026419862649    0.11500942737271   -2.03895939416990
O          -0.06003587243205    2.05456387278318    0.33500429040883
H          -0.57975574884481    2.39991758119386    1.06265156086954
H           0.52615841304037    1.38520753670663    0.74031567231868
O          -1.22651879375674    0.99882288665791   -1.89521443313297
H          -0.84732520154635    1.49963276375138   -1.14820734512441
H          -1.82176279329560    0.34674186805331   -1.49062245835833
N           0.04616952412275   -2.07128002917916   -0.75538666355245
H           0.48882542701805   -1.36796302531228   -1.53147277144367
H          -0.06875285580228   -1.54626412845786    0.15440478194443
H          -0.89163427649624   -2.32990122226132   -1.05870199212184
H           0.62400738706550   -2.89297728608147   -0.61740855672380
