    26
        -50.44957633  Gyration_radius:  2.51790448661 Dipole_moment: 4.577
 S           0.61052001038793   -2.03293425045980   -0.59986734641899
O          -0.28820253087968   -2.56809140365738   -1.58586812308573
O           1.45371194331600   -0.95690879038631   -1.10091169103659
O          -0.03882343716559   -1.65813492317434    0.65542955414342
O           1.59539117071083   -3.21631223278125   -0.19554363296643
H           1.72740365151043   -3.68358233067520   -1.01435674103778
H           0.55931054273364   -0.75829858693567    1.59971043755460
O          -0.15621525631291    2.53766000905714   -0.20893734898777
H          -0.38395732900522    3.34962209104415   -0.66225004918597
O           0.96499205946966    0.02554764427538    2.16944588265170
H           1.58270234439171    0.53179366997049    1.44807303943771
H           0.19386330327497    0.66723354633719    2.33105406134168
O          -0.85372570395870    1.84242202605187    2.26109189808049
H          -0.69651407291934    2.59017793318653    2.83992032860332
H          -0.70691503002347    2.15458764007349    1.33694438154545
O           2.13604926501515    1.14567046261416    0.28579146598891
H           1.44899668220770    1.78899968651005    0.02087642161089
H           2.03010653126237    0.37991031942539   -0.33092927381072
O          -2.56520015457600   -1.52614772989829   -0.55971291324451
H          -2.25843191471897   -1.56549208838759    0.35043346242634
H          -1.91457957470300   -2.05464650181122   -1.05302607917894
N          -0.93109509952535    0.55588287200879   -1.65977195933049
H          -1.69607930901940    0.01813710304572   -1.24446129058181
H          -1.18025580975348    0.72718315005635   -2.62630392278468
H          -0.51253522714368    1.76513080863135   -0.79799797961082
H          -0.12051706454151   -0.05941011412346   -1.65883259207153
