    26
        -50.46975995  Gyration_radius:  2.50047553169 Dipole_moment: 1.852
 S          -0.22964583247689   -1.95501264383333   -0.75621163886317
O           0.19578103465520   -1.48852520744079   -2.05304104762884
O           0.75405408261003   -1.75866157244211    0.29658492815853
O          -1.53093713279991   -1.41414193733241   -0.36388118526983
O          -0.41926533942710   -3.52120176746301   -0.89817226086186
H          -0.48674544940260   -3.59996394828902   -1.84316890877155
H          -1.75420758018724    0.17934087452502   -0.41898812324270
O          -1.83737326886814    1.16687928084621   -0.41608474749178
H          -2.75478515564222    1.35468729165900   -0.62105557509440
O           0.19902576177236    1.17467189726241   -2.30546972693518
H           0.26053524982799    0.20003657571933   -2.35358043394567
H          -0.55581869441870    1.35021401697737   -1.72063123902944
O          -0.68494588415053    1.27047169434871    2.07184139950192
H          -0.96386117037065    0.36538007338711    2.34199755721474
H          -1.17570941299505    1.44138419100641    1.24784648874353
O           2.24035032298563    2.12149931892504   -0.99137226213633
H           1.54039971392053    1.75791009932670   -1.60301678116097
H           2.10387355246123    3.06992529570045   -0.97247726666574
O          -1.18691482013481   -1.35398520192583    2.27254956998991
H          -1.48167927126148   -1.43908442484568    1.34451816200948
H          -0.35048440764401   -1.82720060555665    2.29036522140787
N           1.64458793238786    0.58795482520130    1.09817047868460
H           1.38153825626790   -0.35867360142078    0.71514711703817
H           1.94330178934105    1.21506575620377    0.30382620184741
H           0.75467384077114    0.97227772950726    1.56042362426082
H           2.39425186275718    0.48875197996084    1.77388044825612
