    26
        -50.46532940  Gyration_radius:  2.48459529596 Dipole_moment: 5.856
 S           1.66797615052189    0.43497425394714    0.93931740418564
O           0.92898480466184   -0.81612898400741    1.20898143632768
O           3.04870971434001    0.34989901461092    1.29743116856606
O           1.59287613123235    0.58109990468469   -0.65898942025389
O           0.93978622299872    1.58679247990700    1.43408335701144
H          -0.80355831081660    1.02600682899275    2.46268264372603
H           2.11612363119675   -0.18693521670376   -0.94055619105227
O          -1.26643002604448    0.22269235105417    2.19148471908292
H          -0.52168337256646   -0.34989909471821    1.89777341022242
O          -0.07372285695845   -2.17986504387626   -0.84868392311238
H           0.74160272198754   -2.42122845128942   -1.29500079766663
H           0.20643660275638   -1.70229680341413   -0.04025114877738
O           2.87933219019947   -1.75755284758219   -0.42426484295512
H           2.30756227212760   -1.70261049305287    0.35920996396408
H           3.73111752572714   -1.43417334438864   -0.11554283621976
O          -2.21214625068047   -1.00428665466428   -1.84333205045446
H          -1.36870379301594   -1.43553177501323   -1.56258989019453
H          -2.87185705957833   -1.69960310591930   -1.83223013402496
O          -0.26406320545934    2.64503459305299   -0.61746804498942
H           0.22531197483765    2.39328679208055    0.20467716408489
H           0.29096431735342    2.30486841756799   -1.32516890401996
N          -2.28392823224249    1.03018061436765   -0.10406265876178
H          -2.32034820699564    0.24870397549162   -0.80585993126355
H          -1.53624575423514    1.73039564540694   -0.39994903735905
H          -3.18590821184762    1.48707486913189   -0.02469537873950
H          -1.96818894949952    0.64910206432372    0.84300393266425
