    26
        -50.46393305  Gyration_radius:  2.44801976778 Dipole_moment: 5.877
 S           0.93570326194103   -0.96117022530909    1.38784752109961
O           2.07634495320078   -0.19969708570434    0.92531212664845
O          -0.16114410734301   -0.12566545198334    1.85123682038499
O           0.49267774481206   -1.94068713647315    0.40915893281764
O           1.42225826073062   -1.77296910062186    2.65489900960237
H           2.23463824000278   -2.12729570951004    2.31320397882678
H          -0.11785002900735   -1.62456808890292   -0.99592747062442
O          -0.50119867692101   -1.39271417745474   -1.88968764418655
H          -0.85427305975961   -2.21321149297235   -2.23707812723193
O           2.10279055070109    2.27727149190447   -0.35883076212323
H           2.36664450471209    1.63854691768258    0.31976410509572
H           2.15798244763218    1.76304525730240   -1.18081779480377
O           2.01956916706987   -0.04461833813143   -1.82380101237151
H           2.12472450402105   -0.27426050914450   -0.88520942032981
H           1.23693365183576   -0.51878437298792   -2.12433295024723
O          -0.40995688284539    2.11968043672875    0.41816820981366
H          -0.26667493827997    1.42786565219837    1.09407880459940
H           0.49665208294923    2.32915891905822    0.07490998302066
O          -2.65435897174046   -0.65213502328253    1.25657489322256
H          -1.70345097779570   -0.59757675499773    1.52087123834325
H          -3.14458818724516   -0.28051839695412    1.99215201127249
N          -1.99184932342072    0.64327468118972   -0.97555956225215
H          -1.30670963131596    1.35212221614356   -0.50776511900426
H          -2.65533466572819    1.10399721564906   -1.58733597398534
H          -1.43828559868497   -0.08611695365504   -1.48066934561463
H          -2.46124432945133    0.15702603022623   -0.17116244200896
