    26
        -50.44592103  Gyration_radius:  2.58195658015 Dipole_moment: 6.946
 S           1.12410594459865    1.21266417888048    2.04746734334395
O           1.77517867135348    1.59007540636843    0.81149554826866
O           1.26728043525863    2.09859682116347    3.14022409576061
O          -0.38135598056818    0.95947498508363    1.70846742959741
O           1.58676118574872   -0.19513868356917    2.46671211272700
H           1.42299515663069   -0.85883302268988    1.72495848105652
H          -0.60198664073848    1.61008810971669    0.96218197828284
O           1.05985822795480   -1.94413032506425    0.65612314723970
H           1.29753201669742   -2.80546504759315    1.00316421195771
O           1.78875877877095   -0.09706088753202   -1.26165463217553
H           1.61112915192085   -0.91615421713062   -0.77658656059148
H           1.94615489323999    0.57094606983569   -0.56543328823485
O          -0.51008184605367    2.55932688891922   -0.25512746150404
H           0.44391270372617    2.67327265435271   -0.13529912832177
H          -0.61358583100790    2.00011692341376   -1.05497195209201
O          -0.36132070088539    0.86553307632500   -2.36723038040482
H           0.46785260492172    0.44609342705884   -1.99481310993587
H          -0.11054674134203    1.25894887782314   -3.20435835914196
O          -2.29749231295623   -1.05048613444118   -1.93027980550321
H          -2.27035687124944   -1.60143414266858   -2.71364823056553
H          -1.68838484378738   -0.30873542355593   -2.09236318590961
N          -1.49041321885965   -1.63976602239296    0.77649303784517
H           0.02391519629587   -1.88193450445461    0.67698889775336
H          -2.07939267796617   -2.29922474612321    1.26795701245712
H          -1.52903525315408   -0.75065818540840    1.26471256462748
H          -1.88148204853924   -1.49611607627301   -0.15517976655275
