    26
        -50.42982318  Gyration_radius:  2.5749313431 Dipole_moment: 7.793
 S           1.24606502047345   -2.03793176438987    1.49419310959450
O           1.35448680919611   -1.54484857904580    0.13266596372294
O           2.01969707826365   -3.18118048979224    1.80592009625980
O           1.58510676753097   -0.86959690775863    2.44547194284259
O          -0.24137822662117   -2.34627263522353    1.77345547557876
H          -0.80741070066165   -1.50846782973610    1.69425428729049
H           1.48657330473636    0.01495435023811    1.96520949534217
O          -0.84717778158855    1.55726512465772   -0.00427123792864
H          -1.29826779907678    2.37513390640574    0.19823363543423
O           1.29026742460013    1.44009108365627    1.38490393173303
H           1.15014116333322    1.98575166528916    2.16044310028119
H           0.42277968378168    1.47219305636865    0.85142307124933
O          -2.16682850052566    0.09942558299790   -1.62611537705727
H          -2.56818354742447    0.66174427910673   -2.28903981179465
H          -1.69396381404925    0.72549695318675   -0.97390047516601
O           1.03981221926430    1.73837733758821   -1.74907711217522
H           0.27221252216045    1.77623239875411   -1.09563376833223
H           1.82242238107847    1.74894774666300   -1.19268228801583
O          -1.74128131137945   -0.30214424450831    1.51376385075802
H          -1.35853686504656    0.44543387824162    0.94736181352044
H          -2.47922850218962   -0.64682172229376    1.00592610273692
N           0.30221792915837   -0.74662181248831   -2.11879709962847
H          -0.73773299738491   -0.61316259527310   -2.01966303323077
H           0.55227624144079   -1.30383518254224   -2.92676889375374
H           0.71885352714578    0.23656398528518   -2.14320598768864
H           0.67707797377301   -1.17672757536987   -1.23407077156938
