    26
        -50.46865562  Gyration_radius:  2.56855888183 Dipole_moment: 5.909
 S          -0.29015285848569    0.02981654589441   -1.15549103843401
O          -1.18828135264810    0.28810189209081   -2.38819027540119
O           0.19974230164032   -1.33594631719567   -1.20773942188509
O           0.76943316054562    1.02539243589794   -1.16725919218646
O          -1.13839927767444    0.22638463965387    0.04056143858478
O          -3.27733174237091   -1.33907948498099   -0.09146009991743
H          -4.01673867751295   -0.74120607461811   -0.21487630044186
H          -2.48815988954311   -0.77191596447824    0.04301540425965
O           2.61130854524444   -0.73306646645773   -0.32525942114916
H           1.87731061058586   -1.28655001443393   -0.65203514516835
H           2.36341539132422    0.13291681416081   -0.68139546042607
O           2.13549627193159   -0.68282475238415    2.24827698094722
H           1.87530598488809   -1.58286108175287    2.45159143681635
H           2.44056076405008   -0.70097779226108    1.29851225766435
O           1.24237039789931    3.05544997578219    0.42274206077498
H           2.16833355947757    3.26720237968648    0.29050488068780
H           1.00533217535338    2.41910055353541   -0.29235095834989
O          -2.07612670580056   -2.11887745289778   -2.37864243423244
H          -1.19591841482265   -2.30542265116637   -2.01495337012783
H          -2.66839562265664   -2.06327149442730   -1.60079968954228
H          -1.63177504436459   -0.59609604200478   -2.55046522360071
N           0.25216625069904    1.16932133428886    2.01730069706648
H           0.99637178398328    0.44560193479880    2.22131352206854
H          -0.27989616705740    1.40871994282048    2.84667101449105
H           0.69710686007830    2.01760730183796    1.58685511126243
H          -0.38307830479633    0.77247981861528    1.25357321623426
