    26
        -50.46751729  Gyration_radius:  2.39466623602 Dipole_moment: 8.388
 S           1.43625602442954    0.29340935238886    0.75881707872845
O           1.28753913353443   -0.90188453234796   -0.07422370143164
O           2.09358434188509    1.36296104575702    0.05133892122934
O           0.10465264104720    0.70713096465901    1.25047510111821
O           2.29075980442298   -0.08245549211371    1.99115330417548
H           1.67741890921549   -0.62660580961164    2.55057946548175
H          -1.16380939067956    0.07625852491998    0.56947485086311
O          -2.00028378894854   -0.24560752125060    0.12172841386945
H          -2.72464243135868    0.04410519277996    0.67908537528004
O           0.06481391757753    2.80688882871069   -0.59397155896322
H           0.95645193818169    2.39313537827244   -0.45313878758209
H          -0.34807821365639    2.70877104934723    0.27041934745847
O          -0.48886051323943   -2.60128474608769    0.91820256729194
H           0.24968269681450   -2.11894504353833    0.49314142968875
H          -1.28354758769670   -2.16037023212871    0.59789878508995
O           0.25564121490732   -1.22959404519917    3.11743739901847
H          -0.01635609790025   -1.94685403742061    2.50501297713315
H          -0.13957210556165   -0.42483791734065    2.75190878789772
O           0.93370040119481   -0.64840801665096   -2.62316124555267
H           1.21210338259068   -0.70955998109817   -1.67245967459982
H           0.84472677829929   -1.55550395134744   -2.92225231771717
N          -1.07134584056428    0.97573553107857   -2.08330743485110
H          -0.29412340196101    0.33947748844116   -2.42608062209545
H          -1.61432387004871    0.44999991569876   -1.36197345248683
H          -0.60755558926082    1.79834118689366   -1.56772081698872
H          -1.65483234321815    1.29569685716532   -2.84838422201579
