    26
        -50.46578754  Gyration_radius:  2.71862345126 Dipole_moment: 3.968
 S           0.16633084177878   -1.82839846862644    1.73930381732144
O           1.45166975709543   -1.64234533693234    1.07461240791876
O          -0.12756979204357   -0.80128308025865    2.71057847893538
O          -0.90377076860981   -2.01917148667156    0.76302381512717
O           0.27678153791117   -3.18604072738359    2.55250555182706
H           0.53469230088523   -3.83115064884436    1.90106755742183
H          -0.28286256227425   -1.53519846556055   -0.65656992933441
O           0.33070042799687   -1.09839274933465   -1.30026811883082
H           1.19491600529799   -1.30300415960840   -0.91833262767422
O           1.80384734581880    0.89724350353980    1.73921355677839
H           1.88392786384250   -0.04514754877656    1.47866111048978
H           1.33198071511311    0.85090966427017    2.57793857726069
O          -0.20796926804195    0.51959012808282   -3.48490059305015
H          -0.99813434910152    0.18539149179506   -3.91214102422921
H           0.04528842494061   -0.14389842124982   -2.82097904964071
O          -2.10549368768824    0.38402668683800    1.44024002441090
H          -2.37976100919611   -0.41674282601113    0.97975923779142
H          -1.47503193584521    0.04471470938580    2.11083355748063
O          -0.22194352130201    2.93564933259896   -2.23996933372659
H          -0.24692620173195    2.13388277911383   -2.80183216198909
H           0.46948127775591    3.49516441069396   -2.59564240151857
N          -0.11056031472697    1.30872813888911   -0.07146845332923
H           0.68459106278568    1.37548266078648    0.61402887501400
H           0.05905963871106    0.45341851400702   -0.64404102997541
H          -0.99548890213197    1.14319495694203    0.47363769643722
H          -0.17775490724222    2.12337694231083   -0.70925955090776
