    26
        -50.45752643  Gyration_radius:  2.59757026412 Dipole_moment: 2.310
 S           0.30991880149365   -2.42050522124792    0.13499325780786
O          -0.09005559454709   -2.75070278768265   -1.20830584917910
O           1.45159596366398   -1.51679162342752    0.18779425050670
O          -0.79222250109074   -1.91015278253089    0.95166603378679
O           0.78675716910630   -3.77778823294252    0.82261926128312
H           0.30701176985871   -4.45779359096112    0.35733048425955
H          -0.06413297762440   -0.67911434916972    1.76812841567393
O           0.40070461427338    0.09691226078008    2.16019306049318
H           1.31805114343575   -0.18398287132928    2.20135433571031
O           0.64498092058489    2.27221042921196    0.40426502811920
H          -0.23648729128152    2.59642101628478    0.61163467943258
H           0.74730985449436    1.46959087133646    0.94426915105306
O          -1.83585278812914    1.65028821505622    1.70122107501599
H          -1.09511926061187    1.15584997832247    2.09065455899199
H          -2.60657797745083    1.45119271363477    2.23474365031188
O           1.47163729893829    2.32884088596282   -2.14403493313652
H           1.31622988940347    2.41657651082186   -1.17884044317204
H           1.03341890515939    3.07344601092141   -2.55853330862332
O          -1.82781609237795    0.03669805504101   -0.54434093313132
H          -1.64423212473856   -0.78532820765292   -0.04614590176073
H          -1.89715327031778    0.73176224474174    0.13672731867967
N           0.47195164278848   -0.14390535872177   -1.83326587056987
H          -0.48925614785963    0.03425677045682   -1.40952474241308
H           0.91073940421087    0.74985403033330   -2.14936185607007
H           1.03611937724642   -0.59818899080471   -1.06639662787312
H           0.37247927136391   -0.83964596643387   -2.56884408521159
