    26
        -50.44328950  Gyration_radius:  2.49240131617 Dipole_moment: 3.798
 S          -0.09948906528776   -1.52750934058586   -1.44177252970836
O          -0.69628901736553   -2.40236618603444   -0.46232276203998
O          -0.95536222246028   -1.07750034045975   -2.48711184996972
O           0.48072658315072   -0.28769045160871   -0.69359601772985
O           1.18229621453478   -2.16846716894483   -1.98878584644193
H           1.67626805067945   -2.43737807366881   -1.15117222237398
H          -0.29808120017042    0.32489953215254   -0.53285923020180
O          -1.78059910788750    0.91903173429801   -0.65231272314625
H          -1.98736345838652    0.45546524078091   -1.47278310734499
O           0.72686045213728    2.05710094134683    1.20150208091153
H          -0.06069446506235    1.93536528967090    1.73626715973194
H           1.17863527974192    1.20158943561971    1.20082686201781
O          -1.35887068990932   -0.79426720772946    1.58979091022870
H          -1.76762207774398   -0.07911948028135    1.08603786451357
H          -1.28016322317025   -1.52882191633739    0.95433572170767
O           1.88135383440883   -2.73518881038651    0.40694458121852
H           1.85657513474344   -1.90178978264967    0.92253626050222
H           0.99546579246290   -3.10941778555060    0.49601003322498
O           1.27817220436491   -0.62349335937264    2.03918082019847
H           0.29880618020520   -0.68181124039855    1.93503043611903
H           1.46664855035116   -0.78963610387726    2.96472577708393
N          -0.52015622075610    3.17180230247631   -1.18767610418339
H           0.00580076821948    3.12857138165512   -2.05119755396822
H           0.12896269672791    3.00238171469214   -0.41938320286067
H          -0.88720009846245    4.10950723916854   -1.08919652943409
H          -1.46468087507358    1.83874242604215   -0.90301881808495
