    26
        -50.46610744  Gyration_radius:  2.36641696832 Dipole_moment: 2.673
 S           0.48529232078531   -0.19287644444664    1.81339149413568
O          -0.76650451514122   -0.34139854875305    1.10623035571520
O           1.59537503446217   -0.83486362269961    1.12013394511952
O           0.78603894216513    1.18133673882508    2.16426928628724
O           0.30606172312890   -0.98033621952493    3.17762525729309
H           1.13237934973105   -0.82341297972197    3.62277323717132
H          -0.05639550848918    2.04579576980098    1.07922048197476
O          -0.60085494295450    2.46802624767805    0.37161540065628
H          -1.49797764084618    2.46538646218935    0.71045060482924
O           1.32960268686244   -1.18825333095539   -1.46297905700358
H           2.15104791299706   -0.82292807158354   -1.80125565499587
H           1.43756444092358   -1.16808140200654   -0.48113118902700
O          -2.69113378625833   -0.64311214693767   -0.90285294178067
H          -2.57802306943017   -0.37765562130056    0.01826017356579
H          -2.28960575710494   -1.53878105003246   -0.91853058595558
O           2.04711016053113    1.36177478322121   -0.46700342143695
H           1.94240945503004    2.20627267377572   -0.02516542687343
H           2.02746467571922    0.69588638151431    0.23600653020580
O          -0.94529700619863   -2.60153937944767   -0.39313064832066
H          -0.78837366084306   -1.94627384743709    0.31081192221072
H          -0.16542955381034   -2.56542850023082   -0.95556816392330
N          -0.57039092065250    0.72973653957711   -1.68837399740898
H          -1.47656864910404    0.20410964092517   -1.49609421527712
H          -0.57618410930082    1.18582894492156   -2.59422590849379
H          -0.45975652932457    1.44139706653065   -0.91870266635223
H           0.22214893711159    0.03938994612393   -1.62577477229951
