    26
        -50.46266218  Gyration_radius:  2.75138500272 Dipole_moment: 2.536
 S          -2.45714399961514    0.45222147649441   -0.61109044673987
O          -2.22498601152083    1.37987871787613    0.48064188212965
O          -1.74438951209523    0.78797063095612   -1.82636099601462
O          -2.22492770117620   -0.93412174914578   -0.20548169981309
O          -4.00140091035876    0.56679791843394   -0.96700244717282
H          -4.41522368524167    0.60489856405296   -0.11044446217741
H          -1.05056855358712   -0.85899178676621    1.26403875234079
O          -0.50132302769309   -0.14450803035543    1.62815124311998
H          -1.05757169837874    0.63988342498950    1.40518242960273
O           1.85765278765138   -0.50260194697242    3.01164742340582
H           0.95689239731000   -0.43910765291723    2.64863321441918
H           1.98295200452660    0.27743623379775    3.55435007891423
O           3.46651648863055   -0.94876016692735    0.88286549264250
H           3.78796639393873   -1.85076040750560    0.91448879914619
H           2.99388435486274   -0.79502441938124    1.72879518375353
O           0.49069334291471    2.15681055838982   -1.60982889352572
H          -0.40782398711719    1.75439768410904   -1.65810839274655
H           0.59819270803866    2.66308286821925   -2.41588514639399
O          -0.38590917034706   -1.60016651099215   -1.96510220294748
H          -0.66623884704511   -0.95895133785936   -2.62739468233906
H          -1.11275108624402   -1.55641241014728   -1.30395672536897
N           1.25043111201412   -0.14123789530436   -0.45136387754559
H           2.20111020907065   -0.44155504980194   -0.16092090503086
H           0.64664631403165   -0.08233709029030    0.40171625629835
H           1.24072686102535    0.79279857911114   -0.90407932783264
H           0.77659321640603   -0.82164022204630   -1.10349055014241
