    26
        -50.47117854  Gyration_radius:  2.50416389951 Dipole_moment: 3.662
 S           0.23119765298526   -1.08172019263219    1.22394396480197
O           0.78739109572541    0.16331072801663    1.75807934464558
O          -1.17384319143340   -1.23250156612860    1.50362965411430
O           0.49902461029340   -1.14381477340876   -0.22312818343926
O           0.98683419823277   -2.27577608207416    1.87786728365886
H           1.93268669880941   -2.06180406671304    1.75229000215489
H           1.50800801924792    0.12496253963435   -0.62860028903917
O           1.97236793834457    0.97621936109018   -0.78667920236773
H           1.82344406392528    1.49103429960595    0.01163928723371
O           3.19514638453005   -0.88706443019998    1.36694512301040
H           2.51221001554058   -0.25434366674347    1.65311854420723
H           3.40500515341335   -0.65797432726854    0.45643017037750
O          -1.35641475227637    1.62095307997910    1.23841954401288
H          -0.51995801663563    1.20605760550753    1.53885001494694
H          -2.04469525192980    1.14599928932288    1.71210395531423
O           0.37509561721200    1.79493008144352   -2.80537597683119
H           0.75710076010110    1.52893690006140   -3.64255861938465
H           1.05704241303555    1.60991571503978   -2.12079492119918
O          -3.16982250813255   -1.22695532424382   -0.30176597610340
H          -3.71934251177452   -2.00354771789898   -0.19291243218498
H          -2.48491055344046   -1.28417510226457    0.39546971600505
N          -1.33315000140156    0.50156960757970   -1.18886307159397
H          -0.64343142307285   -0.24836547061383   -0.92338868312717
H          -2.23225138303374    0.04372880380094   -1.36729932677288
H          -1.42900595800106    1.10227517555430   -0.32800483680715
H          -0.93572909221684    1.04814954359411   -1.97941508716623
