    26
        -50.46779923  Gyration_radius:  2.57176773877 Dipole_moment: 6.449
 S          -0.42320495712440   -0.08008159293298   -1.16751486092393
O          -1.53105626536291   -0.51270439162500   -2.15665845915856
O          -0.63448091589431    1.33363863054131   -0.88851351025363
O          -0.61875396874489   -0.85971009105224    0.07383958138810
O           0.87466405031593   -0.37483549862450   -1.74255657766568
O           1.90823907617392    1.53762131491334   -0.15369849593019
H           1.01117840014724    1.82738205258316   -0.39170434383598
H           2.01395435837578    0.76074788665277   -0.72341566649041
O          -2.00506483506532    2.53607733686441    0.98771925978397
H          -1.63474373626218    2.11601831127939    0.17539066196233
H          -1.71016970764271    3.44846653105857    0.96733058598288
O           0.25648681626104   -3.27178629371624   -0.63406411351016
H          -0.12599593243918   -2.43203705445144   -0.30705232459559
H           1.20442160603364   -3.19276523181241   -0.51059178116028
O           1.78549192751300    1.13707721989828    2.45249049615723
H           2.47245716595643    0.50385760903246    2.66530508553556
H           1.90890747040265    1.36301568774458    1.49429013004705
O          -0.12409831558372   -2.41589840381000   -3.16601655026105
H          -1.15555255714376   -1.29647707972549   -2.65133041164895
H           0.58869001677477   -1.77598172043712   -3.01287848719679
H          -0.08757989127234   -3.01101628504773   -2.38974030005927
N          -0.80273836189530    0.52956271879241    2.24987387606825
H          -1.32218790078896    1.39336170775031    1.95065491228621
H           0.19447976168551    0.77205597207376    2.47930694266622
H          -1.26891358554024    0.06164253744424    3.01909588812210
H          -0.77442973895823   -0.09723188345709    1.38043848271533
