    26
        -50.46506000  Gyration_radius:  2.48671762954 Dipole_moment: 3.471
 S          -0.24960500032039   -0.31124606086969    2.04789145438696
O           0.74757532823217   -1.19428843514414    1.47160207714864
O           0.13686701678405    1.08755398184411    1.92596066982151
O          -1.58874861230763   -0.56037417511815    1.54661579916130
O          -0.30042265962913   -0.62817021176345    3.59742034957330
H           0.58400554867653   -0.41719083021237    3.87890629049350
H          -1.43212061456204   -1.97100583446865    0.55298642094583
O          -0.78037539047537   -0.57350788549990   -1.82265614941954
H          -1.66427846639137   -0.18475159420064   -1.77141907562085
O           2.07257964732434   -0.90885481243360   -0.84388816473857
H           1.35614993366444   -1.11757139237339   -1.45144109122875
H           1.70165955018533   -1.02067038123353    0.05410446397314
O          -0.99953322962339   -2.56470562146692   -0.09005686988836
H          -0.12563576674050   -2.70357395126495    0.29235321942227
H          -0.84670974155315   -1.39394449315124   -1.27143329008758
O           2.78050279761736    1.59439899835841   -1.38520674604369
H           2.71718562234996    0.64303929936248   -1.13134176887431
H           3.16166894944986    1.61394984419140   -2.26400531378500
O          -2.56407026757602    1.00199837921767   -0.39560724090257
H          -3.49688559195397    1.13333010349853   -0.22195241232045
H          -2.23144751855205    0.47235987803737    0.35940705744594
N           0.20782088462271    1.61893946977650   -0.62543310390544
H          -0.12023585406128    0.73074471076797   -1.09480965145922
H           1.17741317607645    1.83804478054998   -0.94534211614895
H          -0.45514925382897    2.35879818499058   -0.83740680824705
H           0.21178953259411    1.45669802861806    0.42475200027816
