    26
        -50.46521950  Gyration_radius:  2.53908807133 Dipole_moment: 2.101
 S           0.93195606607218   -1.77810778379623   -0.61211346680676
O           0.00385130932610   -1.43995577497190   -1.67791288516298
O           2.06193451764220   -0.87895466713491   -0.52403181714199
O           0.24373079065238   -1.93858425072679    0.66697875634421
O           1.51719309172902   -3.20202309498684   -0.99013530831081
H           0.76064289086131   -3.64372534836184   -1.36123923170884
H           0.67145967570640   -0.52487458326507    1.55136671748013
O           1.08916896829453    0.35637694639764    1.63775188318308
H           1.90341709846023    0.24218977405501    1.12766617269065
O           0.15523595064196    3.04746037437821    2.13335056880007
H           0.11143369808808    3.47858600317746    2.98732418737087
H           0.55255854829047    2.17921749204722    2.28248701329962
O          -2.30467776491598   -1.38016246207507    1.19808102180458
H          -2.75478141574715   -2.18112951864396    1.46839949907455
H          -1.36659349726386   -1.62458499301937    1.05507755749847
O           1.32601777758087    0.96272602842202   -2.26166402344921
H           0.73336988322515    0.40500593175365   -2.77633441512418
H           1.79035327633383    0.32587194147450   -1.67734451527509
O          -2.13802567548417    0.05325174140673   -1.07807593467873
H          -2.45148670124542   -0.39222999825977   -0.26872514383872
H          -1.45081601031874   -0.54651379506622   -1.43470030087105
N          -0.28722583185219    1.72458408571255   -0.28991185689233
H           0.36922251618935    1.67355046183091   -1.11164751252313
H          -1.16931327753943    1.19080246028433   -0.56893440772501
H           0.17097504805198    1.21588554792623    0.50082605337454
H          -0.46960096273704    2.67533746135573    0.02346140895651
