    26
        -50.46762994  Gyration_radius:  2.43812203713 Dipole_moment: 3.591
 S           0.19272929094438   -1.02033808299701    0.68448653134699
O          -1.21325856900287   -0.77868126646685    0.91453843066531
O           0.43597950031234   -2.17016023707957   -0.17847992279172
O           0.84933825394170    0.17624729307677    0.11040303259231
O           0.89278337269544   -1.31756440665618    2.02926099883353
H           0.50586765343885   -0.65980284886767    2.67466093017000
H           2.12473534199157   -0.20932087373716   -0.94647057507509
O           2.69153088095435   -0.60770541252833   -1.64355100106691
H           3.12718606372355   -1.35030096573681   -1.22061255236632
O          -2.57316306775641    1.26747369110135    0.08395861444232
H          -3.48338358543678    1.19791976644944    0.37405477963172
H          -2.11654212158037    0.45669558294477    0.42207939139808
O          -0.30183606644247    2.15615334697089    1.50080664452280
H           0.23617724744571    1.54692367835047    0.96078223777239
H          -1.17937681832542    2.14316814389873    1.08989908752452
O          -0.02118676349099    0.55103534916151    3.56149033674174
H          -0.23257107544721    1.23045229707491    2.86821502603079
H           0.68558483169212    0.92345933460710    4.09316701881421
O          -0.72130019341701    0.97321907937110   -1.92773873509935
H          -0.07424542321168    0.90636203613279   -1.19956840267466
H          -1.56084905829379    1.16644008904975   -1.48186505846137
N           0.32860960916291   -1.33468881621177   -2.60032199259427
H          -0.24747757913864   -0.44981965958416   -2.53847381771757
H           0.07679500545372   -1.92655000073527   -3.38344960160950
H           1.33656761655628   -1.04879907262418   -2.60164605975318
H           0.24130566489246   -1.82181804841751   -1.64562534768861
