    26
        -50.47074747  Gyration_radius:  2.49944499085 Dipole_moment: 1.699
 S          -1.35781801547198   -1.40350907986601   -0.29809936330024
O          -1.81674379298405   -0.33174657109585    0.56923056504567
O          -1.22707805098389   -1.00923800153503   -1.68081070398902
O          -0.14649353408881   -2.03064512782017    0.22797173935958
O          -2.48107547648348   -2.51814990120331   -0.26279311546828
H          -2.54216085727150   -2.73034725634697    0.66286807805667
H           1.03983711496024   -1.45903710647208   -0.80757828469291
O           1.50380983053218   -0.89907085396449   -1.46699637414779
H           0.84856586055189   -0.80321881864872   -2.16756186634712
O           2.25075673841091    0.43094684773358    2.39820733458106
H           2.90859309706709   -0.26014553525390    2.48987274406882
H           1.37892767266783   -0.00340963672038    2.58916877402871
O          -0.82400522273450    2.04520572551204   -0.04785618360246
H          -1.03346755973057    2.06943757116811   -1.00424434529300
H          -1.27056489744938    1.23256480432847    0.27345856601932
O          -1.31184500907554    1.46394186438485   -2.61958770228235
H          -2.15961285849380    1.60112838184119   -3.04465113549992
H          -1.29918782844983    0.52211878384653   -2.34229152125531
O          -0.04280217102772   -0.85331344625690    2.58250708321213
H          -0.80545577904574   -0.29603483499218    2.38819349380483
H           0.02641488137056   -1.41879348199077    1.78560910333093
N           1.69150368798352    1.34360684668239   -0.04965204356242
H           1.69799295619920    0.48747256004128   -0.67162292111077
H           0.67808522312501    1.70710373924343   -0.01079998857511
H           1.98274946390367    1.05347516686010    0.91959960539130
H           2.31107451649345    2.05965736059023   -0.41214153782087
