    26
        -50.46003571  Gyration_radius:  2.44913738996 Dipole_moment: 7.561
 S           1.07383717628395   -1.53098002973816    0.77425472458240
O           1.09919042764688   -1.56246298478419   -0.70260166135541
O           2.00227683430420   -2.40693012505080    1.39622466108710
O           1.46942861211296   -0.01667860958179    1.13300121044285
O          -0.30662063782751   -1.62632303795539    1.24630755681169
H          -1.27192932777444   -0.45388822927299    1.88931347877330
H           2.22277179367336    0.15463928351318    0.50796753107128
O          -1.90682175344393    0.25803718331953    2.14636684212368
H          -1.85628291521125    0.31882070327317    3.10090998231182
O           1.11208342718172    2.18345624924935   -1.83270071537316
H           0.57685571994519    2.29617606072295   -1.03387665671020
H           1.51977251268470    3.03188678677594   -2.01321606505583
O          -0.44245228227051    1.73655517677218    0.45612502372668
H           0.32012378106868    1.22652102140192    0.80156388462498
H          -1.15728334832199    1.51004142671510    1.08276999405918
O           2.97223232025358    0.30046594347779   -0.93413368268726
H           2.57997437116442   -0.55788520759970   -1.16512447864650
H           2.43261535474922    0.96611513684745   -1.39757127539758
O          -2.68878771904296   -1.66918261044754    0.03238885621571
H          -1.87858258969004   -1.97145650149301    0.48976559362022
H          -3.13071510301228   -1.10307663769250    0.67384359526193
N          -0.96584530809962   -0.20227505017790   -1.35940746984798
H          -0.08933160436316   -0.81126061112109   -1.16912026832747
H          -1.04767172796758    0.01617223829819   -2.34636390878701
H          -1.78652244127857   -0.75152400257968   -0.99167384458429
H          -0.85231556277001    0.66503641710488   -0.78501289792929
