    26
        -50.44485661  Gyration_radius:  2.48271228514 Dipole_moment: 6.281
 S           1.36324450177468   -1.83315625252475    0.41386038754044
O           0.00727657087839   -1.71614361469185    0.90624573204917
O           2.04621089056651   -3.04168209765898    0.68161501590314
O           1.29855682731731   -1.55740551988374   -1.12983415213557
O           2.18816270474817   -0.64133494985549    0.91635272809361
H           1.62285984658039    0.20707090816501    0.87640430024622
H           0.34315208046384   -1.71663086252748   -1.40580369887585
O          -1.32021736043968    0.95593130516852   -1.19122089708734
H          -1.92713433942097    1.57712752777666   -1.59718840219189
O          -0.59103099531434    1.36270339065828    3.12251978151940
H          -1.30807824354745    0.87697767083592    2.65782572908576
H          -0.25348806299159    0.76824797251609    3.79413768719341
O          -1.22680470925610   -1.77403734251075   -1.49945330061491
H          -1.32657648872813   -2.09762288971484   -0.59434514715768
H          -1.44466889705936   -0.82323457333006   -1.46795898313589
O          -2.07732998063577   -0.09645829780776    1.43354331272505
H          -2.09745970871881    0.33923007532329    0.57415728752991
H          -1.38476469168070   -0.77746917448023    1.36513362227041
O           0.72450668512612    1.43383742116665    0.82447211378491
H          -0.04313894945082    1.26848171971919    0.25882749391123
H           0.35798213369681    1.53625059912113    1.73669216354367
N           1.10224760722450    1.18451339730438   -2.20707860916805
H           1.61063335833966    1.80547605114288   -1.58794613922100
H          -0.43698153034198    1.06535795192862   -1.66695334010804
H           1.31059721590736    1.44764959370407   -3.16189422974958
H           1.46224352497764    0.24631998049464   -2.05211047594667
