    26
        -50.46135896  Gyration_radius:  2.38160230557 Dipole_moment: 5.291
 S          -0.36413728485909    0.11743855693219    0.78647096700384
O           0.49066404153323   -0.24185899205436   -0.41924341178767
O          -1.76101264926700   -0.09356418954723    0.44705836543101
O           0.09300028843720   -0.73276133428706    1.89464755300530
O          -0.09957732716122    1.54543969295288    1.07122053666838
O          -2.41203404118739   -1.32216047171719   -1.75393767546702
H          -1.84497670910254   -2.10343749795294   -1.61421869029553
H          -2.42848326252249   -0.91180518296007   -0.85663684523678
O           3.09309326374022   -0.04135073419463   -0.02736476296545
H           3.46820377785426   -0.89376342197719   -0.25436370086244
H           2.14031149067033   -0.09174688346383   -0.27812614994601
O          -0.47833804162310   -2.74245061322975   -0.44864954085773
H          -0.00684964993422   -1.89046921636202   -0.42990613788785
H          -0.75569347943430   -2.88658127232892    0.45857030112043
O          -1.69957950094771    2.35158587918645   -0.84321604746791
H          -2.52960126628494    1.99973208707171   -0.50626977791562
H          -1.05813099326625    2.18999398759613   -0.10729887421109
O          -0.81437457274115    0.51179819030049   -2.36915621824638
H          -0.13572041512036    0.19380271724867   -1.60876981179102
H          -1.54245263731512   -0.25345771605387   -2.30012685008889
H          -1.22214642726706    1.34393364934981   -1.91855423446284
N           2.03186908808014    0.80955244097647    2.25821468118097
H           1.34016492320451    1.49032391128104    1.83818633083664
H           2.44313298990599    1.11321505639576    3.13294661236778
H           1.32494165285956   -0.02131887486216    2.32607199462904
H           2.72772676174746    0.55991024170038    1.52245138724735
