    26
        -50.46596415  Gyration_radius:  2.6216715709 Dipole_moment: 1.034
 S           0.06673370153371   -1.50261813634609    1.23904760085530
O           0.26789379417951   -1.65113073701795   -0.19265705103341
O           1.07807467023851   -0.69463930829768    1.87998866445570
O          -1.28413166333934   -1.03711479437429    1.53996210075816
O           0.19570132087867   -2.96346065681363    1.84212539650362
H          -0.17531483022135   -3.51437227255470    1.15889803134192
H          -1.01080379989914    0.65361213201048    1.68710190050581
O          -0.56380326369766    1.51705088744036    1.57902576674092
H           0.25001591710828    1.41531916997646    2.08198204359246
O           3.25501185147287   -0.10048443949248    0.51060811611232
H           3.85255327277506    0.19347215371422    1.20028361864073
H           2.43843583509558   -0.39282128934063    0.97390795341814
O          -3.06952214780828   -0.81384494192835   -0.40414862728186
H          -2.36881763369046   -0.94369553845186    0.27123562102717
H          -3.89388228436457   -0.77847629679229    0.08384171642901
O           2.62625120667836    1.40858891913325   -1.60141407225407
H           2.98131517377182    0.94446528486672   -2.36129043560197
H           2.92965563103807    0.90074283031221   -0.81382156076553
O          -2.32924897678596    1.03679971942241   -2.21878848231423
H          -2.64729481160733    0.28661008051417   -1.67166153751960
H          -2.89855887832854    1.78011557450980   -2.01308168356096
N           0.06221812631086    0.86778039462377   -0.97163109125096
H           0.15227316405422   -0.16429031344147   -0.79729536424210
H          -0.74014651380239    1.02992754335270   -1.61545047994962
H          -0.14847661862176    1.30576231658232   -0.04579451161698
H           0.97386778702049    1.21670170838202   -1.34097362295827
