    26
        -50.44656693  Gyration_radius:  2.44615531875 Dipole_moment: 5.353
 S           0.20553163387681   -1.87665253474516   -0.62828316934624
O          -0.89712007381248   -1.03150008278896   -0.99725654716983
O           1.21906958989126   -2.06175271762498   -1.60974299257357
O           0.85814602138191   -1.30290206938237    0.67924795395379
O          -0.32904312375442   -3.20647846416392   -0.09818264611148
H          -1.17028414446248   -2.94143528787397    0.40851731897861
H           1.38896309737919   -0.46019264928528    0.54939307121647
O          -0.22355202188222    2.14657194193894    1.01524121110096
H          -0.30571036952653    3.07963866892455    1.21665372323788
O           2.09309310023610    0.95520797751672    0.67787665084426
H           2.59998148701890    0.99109704732549    1.49188336003607
H           1.26497284045098    1.48762362639928    0.82730008123554
O          -1.07238783204108   -0.20524010129889    2.35854311626326
H          -0.27036471865001   -0.67444353413552    2.09737584573759
H          -0.99283040745517    0.67283787912543    1.95508744685684
O           1.85044170418964    0.59501736044058   -2.17521944096180
H           1.69030291565023   -0.35944776440252   -2.19465232011142
H           2.30411223371669    0.77455164737920   -1.34569969852242
O          -2.37582560182819   -2.11576701621435    0.95222554460229
H          -2.42243222462927   -1.58580593695585    0.14456409710932
H          -2.07137745807538   -1.48652522978354    1.64194229203599
N          -0.70387722979719    1.76520913459203   -1.49374650946467
H          -1.07852983474664    0.81961670092556   -1.46186638981871
H          -1.28905065347633    2.31914048745498   -2.10591501208639
H          -0.48463484425578    2.03797229724127    0.02670299660746
H           0.21240592460373    1.66365860938743   -1.93198997364843
