    26
        -50.45036698  Gyration_radius:  2.4749497396 Dipole_moment: 6.474
 S          -0.53622629606799   -0.30462745652381    2.36795468091919
O          -1.59016039039291    0.01717017148659    1.43310518947723
O          -0.90276836513723   -1.05177335470737    3.51299506718185
O           0.60602843108471   -1.00558256398428    1.57960898431724
O           0.15724657673024    1.01029825607236    2.78558742387718
H           0.27951497319741    1.50417338845677    1.92731517601747
H           0.27130103739761   -1.55941910962108    0.76291844886937
O           0.46191080285273    2.23037680377797    0.52010847264439
H           0.08174204182874    3.10525148642763    0.61367614542183
O           2.55435311997576    0.40677386450783    0.19906011624471
H           2.13539847742165   -0.17065390418259    0.85461338779586
H           2.09141331798105    1.25192129220320    0.27896512069844
O          -0.10562441561224   -2.20378476726334   -0.50527572658788
H          -1.00833271839897   -1.88262497852883   -0.71213518434098
H           0.49533803584037   -1.76060593626351   -1.14325653155933
O           1.62824915949590   -0.75819370393107   -1.99146610885579
H           2.32884713665234   -1.23992142080639   -2.43319151435283
H           2.05085941843470   -0.30223660774128   -1.21795336260818
O          -2.53420704172151   -1.05238785416516   -0.74749054108337
H          -3.32466887743101   -1.56449271603087   -0.56999263556825
H          -2.29294804002463   -0.61681476603843    0.10230922714782
N          -0.61721592992930    1.16999983948576   -1.61327647635632
H           0.09737684117857    0.56676646206291   -2.00951823984697
H          -1.41759034792623    0.58803424922762   -1.39193516870860
H          -0.01128022340019    1.79409313778506   -0.27398732941321
H          -0.89855675399065    1.82826017829622   -2.32873861128943
