    26
        -50.43825463  Gyration_radius:  2.70040976684 Dipole_moment: 6.172
 S          -1.25212764556428   -2.70083777957680    0.81897261997278
O          -0.40717228675797   -2.84930546702790   -0.32696683382722
O          -2.36554571181244   -3.55702031621043    0.95744584325388
O          -0.36329952186258   -2.78734942387269    2.11381421123362
O          -1.72724960098503   -1.20798830677568    0.86012132083176
H          -0.85437509603305   -0.73007231564188    0.93483369748820
H           0.31784205390077   -2.10649499985636    2.02913458264140
O          -1.71109912505689    1.19816024434682   -0.68829937775683
H          -2.34254534694956    0.58498417465962   -0.30236153130270
O           0.66848217511017   -0.35373941484573    1.31302030376324
H           0.48111038383469    0.57902076069254    1.53238076801161
H           1.29768692769082   -0.30715392488818    0.55828353409585
O           2.44924542796528    0.23152753413509   -0.62452890842625
H           3.37995487203421    0.21559340619839   -0.39833997159507
H           2.19348853484306    1.18035745821053   -0.71409263919114
O          -0.29212975647799    2.17400074875489    1.26128940372741
H          -0.89265947217634    1.84531395890711    0.52803594063794
H          -0.83378588213979    2.70501711041826    1.84532683073065
O           1.46522777990839    2.70820011027175   -0.75818746392109
H           0.93081295269412    2.68237480967884    0.05676143072294
H           0.83425060600464    2.74458020482592   -1.48085211120767
N          -0.12858023504333   -0.50256971007461   -1.96710493559416
H          -1.09920102006640    0.61347899813579   -1.23105240201045
H          -0.32322440850350   -0.65429217246174   -2.94910554331629
H           0.86487999532223   -0.31573586562366   -1.87925592275240
H          -0.28998660010851   -1.39004982224697   -1.48927285618021
