    26
        -50.46931058  Gyration_radius:  2.42122467959 Dipole_moment: 6.627
 S          -0.89570308529400    1.21657198464859    0.28466793451409
O           0.14358395477431    1.36357317160964   -0.73732603435319
O          -0.53871553152668    1.81595363363544    1.54200917425880
O          -2.16982362996249    1.92321386816590   -0.26336342445348
O          -1.24541243080760   -0.20578973005534    0.43911174495500
H          -1.16596574347168   -1.30156412570907   -0.65255279815932
H          -2.32207635741682    1.44868930809856   -1.10606673162849
O          -1.06259699891880   -1.94669564301748   -1.41064257473303
H          -1.45754292360169   -2.76728379600345   -1.11104905141057
O           2.37458281030477   -0.84279591529362    1.29809401929166
H           1.60662669468724   -1.01412120007257    1.89128938291035
H           2.49905421513802    0.13058124204626    1.36364340026197
O           0.08554885860739   -0.80314095856550    2.66356111671879
H          -0.50416795431292   -0.66431976155550    1.89769353600257
H           0.07721244743926    0.04093090801577    3.12343663793662
O          -2.52141199608965    0.28647298970332   -2.35240291069254
H          -1.97183589917343   -0.50296587441117   -2.21321279471839
H          -3.43570472000975   -0.00544602239334   -2.33260039468161
O           2.11432649481408    1.82611996501902    1.24023514008182
H           1.17521735345562    1.90180504838002    1.50319256760458
H           2.12947938448808    2.16278312983245    0.34103671768730
N           1.43466688506942   -0.83744930089354   -1.10670076119318
H           0.70202197798295   -1.53321249829528   -1.31008958818430
H           1.87198973687960   -0.97349485857820   -0.11681553722586
H           2.14430609842972   -0.82711885737389   -1.83063891466482
H           0.93234035850377    0.10870327306111   -1.04450985611812
