    26
        -50.46111916  Gyration_radius:  2.59557050862 Dipole_moment: 1.074
 S          -0.28225264676674   -1.80501949063858    1.64791177656377
O           0.86453326305898   -0.89886765783985    1.81287350297818
O          -1.48538818517465   -1.26814191624570    2.20800070084205
O          -0.42270910015129   -2.20499098361459    0.24622585754070
O           0.08451229971732   -3.12416002248751    2.44698029698508
H           0.85883253661009   -3.48854549544029    2.02422608586424
H          -1.51689113845260   -1.08628523208691   -0.24284076035240
O          -2.12614204065718   -0.31317342995648   -0.32414463521772
H          -2.89976481854323   -0.56443621480038    0.18678746720371
O           1.68317402923289    0.81401450528173   -2.00055448642674
H           2.36516526264223    0.80623152759437   -2.67253525430805
H           1.81049668026786   -0.01502268136507   -1.47461306339949
O           1.97491253578526   -1.38488000552402   -0.55525449752955
H           1.12859165589112   -1.85945329883332   -0.62563690598703
H           1.95456670263164   -1.07871167486994    0.36726287169974
O           0.52669769272498    2.84073065544675   -0.55968285499033
H          -0.19968341625581    2.71714970731182   -1.20634612694118
H           1.24073693995397    2.30291297808997   -0.94263774345831
O          -1.07580691959624    1.50729310244661   -2.24105016696693
H          -0.22680064181118    1.08192322391473   -2.42979697202346
H          -1.59706396449273    0.85562796612891   -1.75526211655212
N          -0.53154169113938    1.25378559796684    1.23120553007062
H          -0.04349676719028    1.97070619445784    0.59364754857753
H          -1.25873546726840    0.74749780559927    0.67019142908585
H           0.13530777644633    0.50348573916018    1.55457555935887
H          -0.96125059750393    1.69032911027053    2.04046698740905
