    26
        -50.45841239  Gyration_radius:  2.47299911465 Dipole_moment: 4.874
 S          -0.14377341261548    0.06470703160718    1.06352643269082
O           0.19756088234434   -1.19630642826956    1.93497837546748
O          -0.13103370640411    1.23980217172176    1.89550453783405
O           0.88889218569934    0.09394863555151    0.02252397106467
O          -1.45589409963322   -0.21753913505056    0.48058754799307
O          -1.68034974276955    2.59322069943046    0.12280647793387
H          -1.11131912849857    2.31583887325243    0.86072596110455
H          -2.38495932881711    1.93999257679002    0.09958338508257
O          -1.08355995970805   -0.07832444216509   -3.28742419857012
H          -0.72653582994475    0.71680568170755   -2.77279855561822
H          -0.39696032625401   -0.31858579034701   -3.91268845120383
O          -0.02770492355524    1.77316769490151   -1.85291211555000
H           0.47157994523578    1.22868038270209   -1.21596306359670
H          -0.66594447342145    2.26725525847085   -1.29868392936157
O           0.89774622394486   -2.38416528018458   -0.70524261548959
H           0.85007173080923   -2.83791040384793    0.14060107479113
H           1.06050248971927   -1.43168555873287   -0.47769053841257
O          -1.44527677555918   -1.75760483157594   -1.46066574470322
H          -1.34473666493460   -1.09421212896782   -2.27683828003443
H          -0.51921496222168   -2.16151795734114   -1.28244049188213
H          -1.56664370006827   -1.12598936486421   -0.62710397439552
N           2.19749073904513    0.08853770590528    2.98389599259947
H           1.59502041169247    0.89018557419151    2.80984584339620
H           2.99177417001003    0.15542505439810    2.36050649082681
H           2.53335558828840    0.13305305771059    3.93756305545049
H           0.99991270743344   -0.89677908706867    2.45780281237925
