    26
        -50.46624630  Gyration_radius:  2.72048319095 Dipole_moment: 2.373
 S          -0.67977821214377   -2.15050735562530    1.09059946936484
O           0.40087141164244   -1.50456003162602    1.82780728288720
O          -0.17982846785100   -2.85142374880703   -0.08169309215831
O          -1.28458024113628   -3.25750519477398    2.05348745836250
O          -1.77304262365153   -1.24547592290845    0.79506735079495
H          -1.24474440531088    0.25465676068898    1.22463401371317
H          -0.58105197991766   -3.89267969971440    2.14689203349451
O          -0.57596914315169    0.95555108075638    1.41565498768381
H           0.05285891962663    0.47743660777219    1.97406832034154
O           2.18988035562598   -1.42154270760244   -0.10812064945735
H           1.86799274504327   -2.20574781748321   -0.56635117947536
H           1.69003235666597   -1.43832470665236    0.73714790097848
O          -0.40657468840819    3.54293734230722    0.44850256608947
H          -1.29585695194999    3.89729861357768    0.40171837726283
H          -0.47424992073272    2.69873955291867    0.92639213396806
O           1.05056374893941    3.06450022022231   -1.79062860845358
H           1.87774966265189    3.54585029136164   -1.74889491535236
H           0.51706607384272    3.36328296661131   -1.02510684960824
O          -1.21868444363386   -1.25125285576580   -1.90338240214970
H          -0.81746822625251   -1.98344132972310   -1.38645155118133
H          -2.01455624087498   -1.04230422549291   -1.40305636640184
N           0.59111085219028    0.50310802381096   -1.02602060161733
H           0.15791079043771    0.77757817792411   -0.11728741019119
H          -0.11893195196177   -0.06545912113904   -1.55584144017648
H           0.87474628462885    1.36518654231298   -1.52851790777867
H           1.39453428570546   -0.13590148294534   -0.80061892090526
