    26
        -50.46279526  Gyration_radius:  2.52276968046 Dipole_moment: 3.469
 S          -1.38751541781436   -1.84988599632128   -0.07019156740041
O          -1.62602489979965   -0.45518392184329   -0.49154867227339
O          -2.28151483063553   -2.32153580994078    0.93032414211644
O          -1.60658251092203   -2.72314539055656   -1.36965123484697
O           0.03561360539709   -1.99158361809474    0.27902518571717
H           1.21835947733221   -0.91060006673263    0.71505574022116
H          -1.04868889272188   -2.36231237855435   -2.06511094563349
O           1.78721156843810   -0.16521096054201    1.02090957779458
H           2.07975121099839   -0.41355977727814    1.90001160557368
O           0.38940931409018   -0.79881229522587   -2.14275438261707
H          -0.41333449418347   -0.46277374029670   -1.69559772366485
H           0.77646253503757   -1.40473545940093   -1.49664946795138
O           2.01083520865863    1.29722014741100   -1.43460838246947
H           2.28354870651738    0.88860165739905   -0.60414268404232
H           1.49933926221061    0.60913835491335   -1.90176912104687
O           0.32804265689200    3.24849390608286   -0.83625552796410
H          -0.18845251323360    3.44058643866807   -1.62023106595002
H           1.05657068899666    2.64247220652407   -1.12624812558544
O          -0.74386255394207   -0.73464182533013    2.63037147330005
H          -0.48982117524211   -1.33816956285066    1.91921677587671
H          -1.58509839672638   -1.08415725567696    2.93303013435077
N          -0.42768434313851    1.40463762660889    0.91848280181347
H          -0.25861474118924    2.25496596043362    0.32129045543645
H           0.48411563233017    0.92215590289927    1.09447945234859
H          -0.87499693743460    1.60584392043054    1.80745099372454
H          -1.01706815993192    0.70219192726993    0.38511052315933
