    26
        -50.45396829  Gyration_radius:  2.55475174549 Dipole_moment: 8.005
 S           0.66004026650235    2.49598036435627   -0.51744365660605
O          -0.28439705457853    2.85719214967258   -1.55015013989078
O           1.78363225725805    3.34098118493784   -0.30791134293825
O          -0.16871829954978    2.48770019047055    0.86682826347437
O           1.06320738614427    1.06744365452724   -0.66053460500414
H           0.28371545256358    0.05263104657749   -1.59817624952302
H          -1.07355016046918    2.28093053656291    0.62916863914857
O          -0.20042699113148   -0.64282223752360   -2.12520206711638
H           0.22655309650819   -0.65958213760976   -2.98237875262862
O          -2.03256693954058    1.07800434704059   -0.85194826386890
H          -1.48672692365053    1.82272014153693   -1.20270857490256
H          -1.86392875077105    0.36554290228454   -1.48051249067305
O          -0.52067975791060   -2.52767001495744   -0.28053396940988
H          -1.00704791272278   -3.25698385224647   -0.66706378278343
H          -0.37937617112722   -1.86625592154970   -0.99907002810778
O           1.78782254347760   -2.44311368188436    1.20952291738736
H           0.95800077274408   -2.61259828247080    0.72503118687255
H           2.49823274446224   -2.51128247947523    0.56921606588432
O          -1.59841522079530   -0.49287904711079    1.32796491241014
H          -1.88012565048333    0.12425441668964    0.62186615569945
H          -1.41196116349874   -1.33219845975276    0.87790779947539
N           0.94995438445154    0.07592616960184    1.71182927922612
H           1.42253911537519   -0.85095774953099    1.73968579059195
H          -0.10093524390857   -0.08123514339029    1.74495171795787
H           1.25403676086713    0.70518219350442    2.44612775194601
H           1.12112143978141    0.52308968973800    0.75353347341062
