    26
        -50.47154794  Gyration_radius:  2.43872032744 Dipole_moment: 3.623
 S           2.22271959916870   -0.63195139680594    0.20551975356005
O           1.75961870968649    0.37986398364543   -0.73636378872247
O           3.38501382393279   -1.35073200954297   -0.20120286236056
O           2.63180689516692    0.16929800819032    1.53313569193988
O           1.09823054608943   -1.46839750258886    0.63798387258303
H          -0.11431638638164   -1.93459306207183   -0.31538722083992
H           3.57608805577238    0.13606752557343    1.43771168665938
O          -0.89690828299143   -2.15930345686651   -0.87880436936091
H          -0.89236396113541   -3.11287269384445   -0.97097574104239
O          -0.25180536041594    0.10492451656276    2.19330148994822
H           0.28994060989168   -0.50411216994580    1.63144189420909
H           0.13011224593426    0.05621650257999    3.07053282879149
O          -0.18492311035779   -0.05173115382126   -2.50947931007117
H          -0.49440709395356   -0.91173044459406   -2.17968285928272
H           0.64598365987122    0.11853554790466   -2.01821993674237
O           0.36744461128031    2.20709238630433    0.55495180852233
H           0.14801536459313    1.66345962759887    1.33268794035804
H           1.01993206821020    1.66146919320242    0.06352198244521
O          -2.46234061408829   -0.43012252647914    0.59938780575854
H          -1.84715026442760   -0.27368249087128    1.33463573765784
H          -2.07382060743146   -1.16533520646545    0.09220053390252
N          -1.63929404648160    1.52432702519092   -0.98907119993754
H          -1.12694891234174    0.96930760820613   -1.74199067137379
H          -2.14200003217898    0.82148868171208   -0.37804737010005
H          -0.87953439817665    1.97005464440483   -0.38465065814702
H          -2.26909312923592    2.21245885282396   -1.38313704835839
