    26
        -50.47250314  Gyration_radius:  2.48729539837 Dipole_moment: 2.884
 S           0.80317612559446    0.56197156150408    2.04521845904050
O           1.70749073204642    1.41028353386389    1.27843751630207
O          -0.54382181037561    0.57966012237470    1.50759588716124
O           1.33538187028318   -0.77488063110475    2.22811107268251
O           0.70829774162910    1.20044144988209    3.49193353657214
H           1.58027789950576    1.02245038593357    3.82739016013240
H           1.29616492712156   -1.64069274594010    0.89108495878174
O           1.20565579478438   -2.18600188908463    0.06598648389447
H           1.87654564967192   -2.86768915453260    0.12583918094826
O           0.69023364139668   -0.68028759511971   -2.15615988894898
H          -0.28165439686102   -0.73417105222652   -2.19668816835093
H           0.94969700520288   -1.26594157707036   -1.41987268352806
O          -1.49537372831970   -1.73250026271897    0.56591307285796
H          -1.24534618816036   -0.92529650338039    1.05890193613300
H          -0.65619623883900   -2.19122430855941    0.41319373806741
O          -1.73228911009879    1.82568872564395   -0.57155949807475
H          -1.51011316818749    1.49626816589050    0.31890915257557
H          -2.01705155183673    1.03495087592302   -1.06531523518601
O          -2.03279103823135   -0.65122457550543   -1.74200386174832
H          -2.79849937841286   -1.05946294540134   -2.14638965969692
H          -1.90413089824701   -1.10357984662872   -0.85806303701419
N           0.82997293194986    1.75776470803054   -1.15159784626298
H          -0.20661692133287    1.95829262386601   -1.01422404677992
H           1.29486171558044    2.48583572694218   -1.68134068736047
H           1.24915788024986    1.66565333608113   -0.18112841500403
H           0.89697050393629    0.81369191131520   -1.63417211721051
