    26
        -50.46887014  Gyration_radius:  2.42971798536 Dipole_moment: 2.150
 S          -1.30226867404006    0.40376486101571    1.28968499140493
O          -1.03094649946083    1.70279842912018    0.68042660073415
O          -1.65036988386605   -0.59915429414804    0.30725776275649
O          -0.22626731157591   -0.00768745124831    2.17198946733288
O          -2.58480129039475    0.59899289658375    2.19269143919577
H          -2.30773112816344    1.27095520582074    2.80663199233804
H           0.61654329172422   -1.25996567371115    1.50696353107190
O           1.17722664078648   -1.95980634326266    1.09750264982110
H           1.46524005777155   -2.52599603843132    1.81501254492568
O          -0.75796714043790    2.39115875946293   -1.89191035221712
H          -0.02738287029823    3.01281641570245   -1.87185654981844
H          -0.99977393337730    2.23819181455909   -0.95510398941570
O           2.17726237840337   -0.29269361888793   -0.82583541709221
H           2.05114994994082   -1.02612771028928   -0.20032326263609
H           2.12997625858257    0.51981670769040   -0.27411768319271
O           1.61326685885965    1.69247071005310    0.88367775145121
H           1.71277963481666    1.25806044196255    1.73508953815772
H           0.64699030183638    1.80701292339563    0.78779841749860
O          -0.54874770863267   -2.86726203636157   -0.98100570207922
H           0.17812221774979   -2.76329359522870   -0.35190897732929
H          -1.30114036739174   -2.45597211613405   -0.54322382384547
N          -0.20988978038725   -0.22910938835633   -1.90655916030976
H           0.80806115918608   -0.29224907063268   -1.57362966471280
H          -0.41917254522270    0.74667759198179   -2.20752240412831
H          -0.39201988304947   -0.93204734012750   -2.61758532733067
H          -0.81813972337156   -0.43135210050767   -1.07414438252862
