    26
        -50.45752542  Gyration_radius:  2.48501330972 Dipole_moment: 7.619
 S           1.13421271685548   -1.21930499521665    0.72579678097997
O           0.44469465514978   -2.40852178724003    1.16351710637724
O           2.56000037660638   -1.27963656957426    0.65400057151142
O           0.61770325692473   -0.97384246942060   -0.79326744927525
O           0.64070274932562   -0.01150356667911    1.41827796782617
H          -0.80205197154412    0.52133244666490    1.40114465930061
H          -0.01451318025939   -1.72439820475502   -1.01244030277576
O          -1.71724068728068    0.91181073732969    1.24917460673899
H          -1.90282172517013    1.45416108913740    2.01681708103717
O          -1.17109374238068   -2.75977938204671   -1.25683731318571
H          -0.77421324476184   -3.59163226576699   -0.98631173139656
H          -1.74241020296273   -2.49179008167081   -0.49342877082954
O          -2.14433341090340   -1.90313413057556    1.03653963514477
H          -2.24124586609760   -0.95095552602397    1.16347364464153
H          -1.22557319528827   -2.12254525848915    1.30595089956065
O           1.25441187506447    2.99698736973747   -1.28639347774702
H           1.29172811210902    3.84483287741786   -0.84100611313817
H           1.86163009777685    2.39749402723048   -0.77055262458904
O           2.54620274731264    1.39293598184961    0.30631220582184
H           3.08740213083961    0.61886159652225    0.10653147693453
H           1.83490317822405    0.99745035707862    0.85073075551046
N          -0.73064069137789    1.27568311393890   -1.20811716596374
H          -0.02834621078424    2.07099645402051   -1.27855399620376
H          -0.16341100786536    0.38654159406962   -1.12731599244939
H          -1.28094078320232    1.33446567896167   -0.32171824905741
H          -1.33475595628353    1.23349091351914   -2.02232420477883
