    26
        -50.45297595  Gyration_radius:  2.54750569669 Dipole_moment: 7.125
 S           1.89644461772306    1.63131605258299    0.78135991003366
O           2.17145248067849    2.37929393633976   -0.41402091412916
O           2.85491065170437    1.69868198045350    1.83869625637247
O           0.53444103565030    2.29686682868142    1.40497954634123
O           1.43138542406251    0.26279119229602    0.49034406282525
H           0.81607822157915   -0.90010876837781    1.31732534632929
H           0.89704262831985    3.07981869617302    1.80480285017119
O           0.32530139431874   -1.67013020301313    1.72366360818417
H           0.98804856898966   -2.17833496748853    2.19317265423785
O           0.17331259825055    1.05578331911342   -1.58740127499175
H           0.62999842927751    0.72225608829675   -0.77271668435616
H           0.68679619875408    1.85409054232842   -1.76303274417386
O          -1.50459733824762    0.51358188780074    1.98031622831856
H          -1.01113384219735   -0.29861145780028    2.15509923004885
H          -0.83522008079502    1.20706084362547    1.87273483282528
O           0.40999686335680   -1.33429150361345   -2.76316556888638
H           0.03164340533286   -1.28620989113516   -3.64231698368344
H           0.45628537042289   -0.40706285498825   -2.43170026668886
O          -2.22312964941970    0.24060156434932   -0.55793362437434
H          -2.13158988660865    0.44606676071866    0.40406762082573
H          -1.52228520613186    0.75379067372925   -1.00131473481346
N          -1.01689373396776   -2.04775089290556   -0.60599238597279
H          -1.58985540797149   -2.88149825943802   -0.67056241107066
H          -0.45607319252912   -2.04785303505314    0.27423584564352
H          -0.38727232096863   -1.94932204376727   -1.43811277059827
H          -1.62508721953477   -1.14082648888536   -0.59252762823999
