    26
        -50.46570945  Gyration_radius:  2.49245980167 Dipole_moment: 6.393
 S           1.44299775971449   -1.24989898361126    1.13757064018226
O           0.51335341344483   -1.90085951039506    2.02661090270005
O           1.20185398141934   -1.47711237624976   -0.27318283952007
O           1.57518866399978    0.18589632616277    1.42181583593732
O           2.86208018616640   -1.88062049182847    1.46657450656648
H           2.65710501955165   -2.39477718563866    2.23966840228014
H           0.23058469590358    1.00269917461610    1.51477788041294
O          -0.60317340189227    1.55105367794922    1.47810455988528
H          -0.60621814224318    2.07793488855688    2.27866049383251
O          -1.89558340377548   -0.96903397004779    1.29534601300072
H          -1.69525686874206   -0.02903741600668    1.39195385458709
H          -1.11957618905537   -1.43190435707266    1.66466148809523
O          -1.31005356950986   -1.77392363997268   -1.20301823276558
H          -1.72233481553427   -1.60035913888754   -0.33053573760316
H          -0.35757331303641   -1.81154680320576   -1.00395713002593
O          -1.87775737976952    0.39253612158039   -2.47052429992370
H          -2.82295140533663    0.47442891653508   -2.33430568182920
H          -1.63068085941247   -0.50386713308694   -2.07741583339494
O           2.13356885722477    0.84019779246468   -1.05230790071510
H           1.93522559803881   -0.09851598823746   -1.22211300958186
H           2.19084732092759    0.83669949939904   -0.07577764275216
N          -0.22881619225934    1.97431035612615   -1.18049194400720
H          -0.22088536185480    2.92171911417615   -1.54217479593981
H          -0.49536159571906    1.95763935087086   -0.17617327308614
H          -0.91060907443847    1.36507585363222   -1.73387370541139
H           0.75402607618974    1.54126589217078   -1.23989254092039
