    26
        -50.47086740  Gyration_radius:  2.51053022948 Dipole_moment: 2.123
 S          -0.05002796926609   -0.99336954235148    1.74282214694696
O          -0.18339464488004    0.44374809792171    1.52873057624564
O          -1.15999135609089   -1.72826181497021    1.17992315450387
O           1.25646398119787   -1.48192473809671    1.32752153679859
O          -0.10519327168650   -1.22744971215471    3.31055046435678
H           0.81246751075522   -1.20493428489299    3.56259310033869
H           0.87531448002074   -1.81689221102754   -0.28564751213539
O           0.33212411243888   -1.88672953846521   -1.09775829897660
H          -0.52379930538079   -2.17374032437811   -0.75742557558068
O           2.34167507835656    0.96579150533663    0.98424590119497
H           1.39754437692897    1.01064943445233    1.23742016750640
H           2.51441884752178    0.01530061018782    1.00381393615764
O          -3.18300595971603   -0.71419230507996   -0.18848502763689
H          -2.46547997639881   -1.13565055626130    0.33408117146987
H          -3.97292735098723   -0.78320912724577    0.34955393809209
O           2.30387634861598    1.89922763832318   -1.47621574536386
H           2.25269294182400    2.85134320062763   -1.37823398073346
H           2.42852674833653    1.54234536045796   -0.55726646469517
O          -1.68036476833341    1.48956888369703   -0.40467548511377
H          -2.39370654642409    0.81748270476013   -0.41971789259419
H          -1.16638457173976    1.26570919616601    0.39873647506754
N           0.07376660554268    0.57075064792325   -2.10369825624040
H          -0.68697075950180    1.00976983403411   -1.47902732124952
H           0.97080922222644    1.10149369333406   -1.95368251864149
H           0.20891655570603   -0.42505924767768   -1.77766410628128
H          -0.19735032907878    0.58823259539844   -3.08049437343132
