    26
        -50.46370864  Gyration_radius:  2.54321321329 Dipole_moment: 4.161
 S           1.30402788246134   -1.80463229575084   -0.48278525009947
O          -0.13088080393498   -2.03807317071273   -0.27069369008999
O           1.54524874248931   -1.04834718213148   -1.67850485284494
O           1.93003117441932   -1.26407998761489    0.71893411552581
O           1.95355212467620   -3.23828193007081   -0.69555050156059
H           1.92981685567644   -3.64631160067564    0.16551325761350
H           0.68454566149565   -0.93311059103678    1.89569798360870
O          -1.16917373277742    1.48832618049593    1.73138037067920
H          -1.27589788845504    1.90644590975984    2.58668398349608
O           0.29409804881632    2.04723533338964   -0.56552119259521
H          -0.08130131219375    2.03308068597386    0.32927044373510
H           1.24674119913144    1.79247717023994   -0.47826441809788
O          -0.25839502043731   -0.91973726983910    2.15072019883422
H          -0.65410046065943   -1.47444806498499    1.46094877147753
H          -0.82440986642168    0.56903126498031    1.91904310334931
O           2.72773505123976    1.02560746550330   -0.39323705422253
H           2.58252130692141    0.28006932485045    0.21754191571323
H           2.70749642696769    0.59620511770647   -1.25772769913318
O          -3.13788509539990    1.09574942597319   -0.10188566327755
H          -2.51114109608632    1.23015308199312    0.63992267589628
H          -3.44784521103063    1.96811728637270   -0.35056647913110
N          -1.09724185880813    0.05759194291998   -1.53028877421055
H          -2.03895299059374    0.30710650382606   -1.15819783288365
H          -1.08838710192488   -0.06260437404895   -2.53705959511185
H          -0.43991851661345    0.86178059263217   -1.24202534665707
H          -0.75028350895885   -0.82935083976880   -1.07334848001050
