    26
        -50.45918049  Gyration_radius:  2.59196582996 Dipole_moment: 3.360
 S           1.22195976386586   -0.77902991776083    1.47323629712738
O           0.13409285685654   -0.01364812918132    2.05090664830703
O           1.91558026713055   -1.67606136483604    2.33696031573008
O           0.47326745351015   -1.72945808919428    0.37966324545351
O           2.08148213565579    0.08091893621327    0.65623707867544
H           1.36558777788536    1.59960813697512    0.67600427470286
H           1.00103913182325   -2.52135658811741    0.39102910977076
O           0.67136527866540    2.29563880557965    0.66908514227211
H           0.28931445979041    2.25144798452921    1.55052655348386
O           2.52542105600889   -0.65045423652530   -1.81695536432198
H           2.37097943408016   -0.39839444164314   -0.87641454138234
H           3.45614430140346   -0.49005732860035   -1.97970761909136
O          -2.33065654084967   -0.89836849897405    2.11851744510096
H          -1.38251823962693   -0.62820752969376    2.09829089350740
H          -2.64289939794815   -0.67102221002681    2.99578752558045
O           0.52686837291189    0.57075203339207   -3.12234454443847
H           1.27067809580886    0.03945666622893   -2.75854477409254
H           0.89928666359837    1.41670665393645   -3.37719378852209
O          -3.32566456595953    0.22666891209869   -0.07266335930317
H          -3.05122637578976   -0.16858574399815    0.78994476334101
H          -3.86272922222199   -0.43611963179231   -0.50912831300302
N          -0.73525995931072    0.51830160849865   -0.74544720677635
H          -1.77492183181820    0.51173601463078   -0.62978075083306
H          -0.42957560439875    0.57013554950927   -1.74445625743428
H          -0.30765775641826    1.32498534132242   -0.21542027345554
H          -0.35995755470779   -0.34559292263786   -0.33813250042198
