    26
        -50.46436820  Gyration_radius:  2.48489680692 Dipole_moment: 5.571
 S           0.91476336547959   -1.17905567496868    0.51051710127175
O           0.30970306133982   -1.55710218111435   -0.76893590745470
O           0.57694850793174   -2.06104511790583    1.58883468615173
O           2.45327354022981   -1.19859612952083    0.31084400551262
O           0.56048017010341    0.23079714227522    0.81269499609718
H           0.13614165957675    1.16978767566800   -0.41492195728840
H           2.59057798958492   -0.59784535563011   -0.46729248760749
O          -0.12282569514878    1.71611518562995   -1.20251776259090
H          -0.03454274126498    2.62986735966907   -0.92535692013104
O           2.62423803114036    1.92087669464348    0.91430158629086
H           1.85120816201044    1.33160231031512    1.03340691571889
H           3.31070191305573    1.57367667194655    1.48611552810955
O          -1.52578270736896   -0.61184304940903    2.28485088582032
H          -0.92813033522425   -1.38252669082473    2.25180297740562
H          -0.94579190075336    0.09611194814211    1.97109853099600
O           2.58920812744593    0.68748388501270   -1.49338674182436
H           2.79021973533455    1.33394242418212   -0.78681657897441
H           1.69416347704473    0.89939641366945   -1.78819163961269
O          -3.42689678270329   -0.80429621458067    0.49170464663344
H          -3.79480263274898   -1.68202085912204    0.60638643863558
H          -2.77594594118522   -0.68850352380859    1.23747459044387
N          -1.79944892477969   -0.35913375723800   -1.55376563531403
H          -2.53363066681504   -0.49697413001617   -0.80603071871760
H          -2.12932983324781   -0.65257846011332   -2.46632147513530
H          -1.45961714174514    0.61738298189639   -1.57282989520053
H          -0.92488242731204   -0.93551954879118   -1.25366516922400
