    26
        -50.45077992  Gyration_radius:  2.44797364566 Dipole_moment: 3.738
 S          -0.49327959464041   -1.58014038159192   -0.20322943550872
O          -1.85095399397338   -1.35781955311097   -0.63480088192975
O          -0.06780494419368   -2.93557344526665   -0.09762742035268
O           0.46391923279151   -0.86348728313559   -1.18524786600608
O          -0.28207678084097   -0.85168930540192    1.13205410953563
H          -1.11220731923274   -0.24341033283765    1.31129642537302
H           0.64112051079602    0.09407723623895   -0.91539605916938
O           1.10546661302112    1.48728972124272   -0.40328257350037
H           1.78108859746063    1.81125384419708   -1.00199378284296
O           2.47590003159403   -2.21464127885836    0.44619918891834
H           1.57706135728986   -2.58055643155487    0.38178384681347
H           2.86029392150245   -2.33421302999944   -0.42449852672529
O          -2.10949853077437    0.65318047747385   -2.37104678753942
H          -2.88285004662134    0.50357765277538   -2.91686157947648
H          -2.00427468458563   -0.14489024772581   -1.81605636910339
O          -1.53642155135083    2.36953614939124   -0.35470570872987
H          -1.80190401573726    1.92781426032265   -1.18369196931703
H          -0.57425164019702    2.26846111761796   -0.31373965894748
O          -2.34051970592901    0.54368724155220    1.32077517044829
H          -2.10295876248259    1.35004209428870    0.77453509469115
H          -2.86122490234307   -0.02381998494737    0.74017293901625
N           2.30197103616209    0.42016621755481    1.62217948696956
H           1.59775338333665    0.32499391850815    2.34362642326886
H           2.46908868950518   -0.52200277986265    1.26075552195869
H           1.59046565641168    1.14370873653196    0.43811586047858
H           3.15609744298960    0.75445536659216    2.05068454175067
