    26
        -50.46057817  Gyration_radius:  2.38703429408 Dipole_moment: 7.819
 S           0.88647914671410   -1.28611297233733    1.04772914094965
O           0.74728174868389   -0.97603585951117   -0.38321137136736
O           2.20287202674745   -1.69292531926600    1.41051470154116
O           0.38017057210445   -0.15240761392003    1.84113190674833
O          -0.13680725504476   -2.46044833677661    1.28797017402207
H          -0.89313396169071   -2.12839069028643    0.78273045687162
H           0.41093030298709    1.25805902404316    1.06455223169768
O           0.46503851985313    2.00778088732800    0.41606313479454
H           1.37526969108368    1.92458889106627    0.07828373522229
O           2.74079288692229    0.73775593425132   -0.38558324923695
H           3.40316683454165    0.47732377942036    0.25733901501872
H           2.07808423962635    0.01530368200099   -0.35662577547144
O          -2.13979258524176    0.23426151170214    2.27524904232771
H          -1.16787194833058    0.03870289983950    2.28116343604934
H          -2.20786147676329    1.18598376682339    2.37250579502441
O           1.09126801239060   -0.08300808471737   -2.84706669386313
H           1.06902755765503   -0.74155274272254   -2.12866917442670
H           1.87788803709270    0.44081673271723   -2.66254348470870
O          -2.22319570556377   -1.09980365820212    0.03286085788856
H          -2.99703091653152   -1.66256985387665   -0.02920727938160
H          -2.31151828753784   -0.58509003698829    0.87854350068146
N          -0.96155931153277    0.92222642650362   -1.46566955703961
H          -1.66676811802128    1.50333214585068   -1.90564311714177
H          -0.23062906477901    0.58783656582653   -2.15125650720345
H          -0.41300117261367    1.44879070947913   -0.68673355230412
H          -1.37909977276874    0.08558222175791   -1.02442736667918
