    26
        -50.45843888  Gyration_radius:  2.77195722604 Dipole_moment: 5.248
 S          -2.66175584147592   -0.55035701828683   -0.52765885619451
O          -1.90718774295261    0.17559027472601   -1.53963525012854
O          -4.08238860975317   -0.43684159371970   -0.58963031700533
O          -2.34251837063579   -2.10911064868981   -0.82074059640292
O          -2.09242970277816   -0.31209037794288    0.80638998026831
H          -1.15640798685498    1.06037859377203    0.65152188347817
H          -3.20914298990238   -2.47408764922677   -0.68033745678932
O          -0.54060650165032    1.65633581063922    0.16392864039121
H          -0.89869845359680    1.58885242200276   -0.73591618091387
O           3.57279641940924    0.94645227694393    0.31555953088642
H           4.17621742075583    1.20145256890847   -0.38354927402229
H           3.04633598134256    1.74410525161785    0.52918223137539
O          -0.20458956895778   -1.84833751740688    1.77185252480242
H          -0.31158015609851   -1.83693125764077    2.72376979373115
H          -0.98371440003869   -1.36401007374847    1.40552372425549
O           1.81853041925109    2.96985311178803    0.76502597706194
H           1.71752403400513    3.44547493582969    1.59060971641169
H           0.93345229337765    2.64514991525941    0.52585993808453
O           0.07321904423933   -1.43480861575498   -2.12286929632061
H          -0.32813200169427   -2.28297227545406   -1.91602837862317
H          -0.67373181290658   -0.79420699264415   -2.05049248530596
N           1.24041504551933   -0.40609910065444    0.02526140832865
H           0.64710288086240    0.45336572023671    0.08938372230720
H           2.23660189482121   -0.12727549048517    0.09209271614849
H           0.94393996829794   -1.03792951439379    0.79572461567075
H           0.98674873742425   -0.87195276567184   -0.88482831149867
