    26
        -50.47071377  Gyration_radius:  2.41582812329 Dipole_moment: 4.135
 S          -0.06828932662367    1.53054398834283   -1.32733351023174
O           0.68243629128399    1.95726576285507   -0.17117846543866
O           0.54570601091284    0.44207380384633   -2.06929412458272
O          -1.46247311176332    1.23200884230527   -0.99318568490795
O          -0.10434563382468    2.76602488450468   -2.31709504666130
H          -0.39252794257586    2.36640220201738   -3.13055171784879
H          -1.61121061023014    1.52383201799946    0.62078335241498
O          -1.41186934456434    1.68862023734271    1.57161177186548
H          -0.68790447658934    2.32357848054490    1.53002034442569
O          -1.48487639306466   -1.26682212785268   -1.75839542916091
H          -1.77383216240170   -0.38876214204878   -1.43704494451045
H          -0.66854548625367   -1.04054470616760   -2.22941704983208
O          -0.53704745744730   -2.44466135354226    0.35422086502529
H          -0.95978954293023   -2.02147795960050   -0.45007668587616
H          -0.90946081625291   -3.32481605923160    0.41714837831077
O           1.94186245945430   -1.38933390578484   -0.65925253663199
H           1.21128176019423   -1.94718082129780   -0.36068270636696
H           1.54745718313170   -0.73281383868059   -1.26509888818165
O           2.20590424950553    0.35197485750279    1.31041623978853
H           2.37392898947744   -0.33780229836896    0.62512567700650
H           1.82934327175744    1.09677866398599    0.79924904186266
N          -0.06651849666503   -0.49522230191917    2.21092043052476
H          -0.32448857439574   -1.28345107402731    1.58657412060283
H          -0.11420903671871   -0.77403897238210    3.18437399501462
H           0.93945082795936   -0.17102769892449    1.93778649792328
H          -0.69998265132963    0.33885151860252    2.02037606546113
