    26
        -50.45347933  Gyration_radius:  2.82491614172 Dipole_moment: 7.795
 S          -1.05568016101247    2.03154374391144    2.05463616520537
O          -2.04977057142632    1.82238250290804    1.00938789872465
O          -1.18866082213492    3.24245435813452    2.79611446706150
O          -1.32412393082674    0.83614817791768    3.12687501535174
O           0.29125996552398    1.72884398343535    1.56174962693943
H           0.34709047858145    0.15838395631516    1.65017420221604
H          -1.87887142154612    1.29487216598050    3.74852198128010
O           0.31456016579985   -0.83700599354190    1.58437699467376
H          -0.11095904788102   -1.11476201865094    2.39756457173623
O           1.01068879952449   -2.13697360663290   -2.35367258064612
H           1.51769117418705   -1.68029370607564   -1.66215380970726
H           1.21416896903346   -3.06948270054792   -2.26942852496978
O          -1.54365978794068   -1.31465235032724   -2.86675584728368
H          -1.58451365475325   -0.93690571773043   -3.74636099377867
H          -0.64184222627872   -1.67650798309510   -2.76358721077081
O           2.34888047020395   -1.03357402982128   -0.17054125095148
H           1.66986364289731   -1.05282497567586    0.53313681363608
H           3.19783958231534   -1.12989781941398    0.26268456476208
O           1.30043022209492    1.48256993042192   -0.92858271528055
H           1.91774687965774    0.74909792682803   -0.79148926646032
H           1.09561503843318    1.82691186389076   -0.03915330987048
N          -0.99217239306703    0.14905783682818   -0.64753008485580
H          -1.47443874784934   -0.29403630333702   -1.44906461343862
H          -1.57292477849939    0.83756840751448   -0.07962557144563
H          -0.66500303851845   -0.56442564412519    0.01699516296598
H          -0.14321481652576    0.68150798489830   -0.97427169508381
