    26
        -50.46889642  Gyration_radius:  2.44062134925 Dipole_moment: 4.773
 S          -0.09305221354101   -2.26694891902474    0.51653896618976
O           0.70449151051167   -1.29140480052655    1.26932082385060
O           0.43751324492726   -3.59024375007654    0.53744851180808
O          -1.49610121149358   -2.33264667526479    1.29067888206367
O          -0.42676084565179   -1.73144417796219   -0.79650656837478
H           0.48142754597054   -0.78240260843214   -1.96623258955388
H          -1.37203404995421   -3.15354904664565    1.75193573662705
O           1.00965548895783   -0.05892060095364   -2.34929637949038
H           1.74075837223836    0.06145688991828   -1.72849763001377
O          -0.86301115531825    0.71847030702125    1.91761617972626
H          -1.57589014059345    0.55544857812119    1.27163343689309
H          -0.30020020954262   -0.08460636048007    1.85497463634361
O           2.46502728037592    0.17453637109361    0.06291763718537
H           1.81390719404585   -0.43606024541499    0.50195694272453
H           3.32995719504849   -0.10695807250494    0.36359883769922
O          -0.70153492769903    1.87596723071627   -1.76499989915246
H          -0.09513044899954    1.21593186042162   -2.18516183834670
H          -1.43812140904364    1.34910598622560   -1.41433361729854
O          -2.23664012698425    0.05689513563609   -0.33359933414808
H          -3.08197156135492   -0.39270091836061   -0.30525842668162
H          -1.56635410300616   -0.64773842568134   -0.52868961272474
N           0.67183578802526    2.20467913656593    0.41609134114556
H           1.51173451681679    1.61195003074449    0.28796220611701
H           0.11505081640369    2.19752152228876   -0.51208417858483
H           0.04750380083691    1.70963312165296    1.13744479585722
H           0.91793963897073    3.14402843101421    0.70454113021180
