    26
        -50.46807854  Gyration_radius:  2.38066049282 Dipole_moment: 4.558
 S          -0.34210796999181   -1.07237050245033   -0.82201267613364
O          -1.56235266423926   -0.33648133388944   -0.51688517130639
O           0.80857169050035   -0.17150402912870   -0.94515162478924
O          -0.06664699373871   -2.09515126570122    0.17031277898608
O          -0.52320287203237   -1.76615301699513   -2.20364459921540
O          -1.89845745059354   -1.55774832889355    2.17278521863102
H          -2.51858533059167   -0.97724494633245    1.72621233053989
H          -1.44228333362032   -2.03020462879905    1.46316764147670
O           2.92941906122477   -0.11552497869595    0.65397097786436
H           3.50460897101720   -0.85164364981829    0.43969879430442
H           2.23138599073401   -0.10853460566862   -0.03762952190474
O          -0.76675162545714    1.58173384972078    1.11212709731562
H          -0.33020275951644    2.15556209912047    0.46086726799548
H          -1.26391026341208    0.94256422375280    0.56032756914920
O           0.43227449269924    2.39462891854688   -1.27263180309538
H           1.28509079132496    2.81982755549727   -1.37524505092855
H           0.61283200768041    1.42970535232227   -1.20021743973148
O          -1.29497555024173    0.67000092687207   -2.96845968574475
H          -0.76372246745218   -1.02131650155033   -2.79030916047447
H          -1.74301065506943    0.51788594779532   -2.12117225568955
H          -0.73772281462958    1.44341846105237   -2.81779996866248
N           0.70351519743695   -0.37110975951308    2.09525242393129
H           1.70921783632697   -0.21048785512655    1.87520159331565
H           0.38242092353018   -1.14718159206218    1.46564430072140
H           0.51611143439278   -0.61739904055890    3.06311526509044
H           0.13848437372159    0.49472870049740    1.81247571836591
