    26
        -50.46457046  Gyration_radius:  2.43737412398 Dipole_moment: 2.714
 S           1.41792158297828    0.63299148857489    1.43964442497870
O           1.02768416477327    0.84272807462617    0.04961142443600
O           2.65484851565191    1.23738149874592    1.81582757732267
O           0.28620095212809    1.41121687435665    2.29409074277861
O           1.27794072969781   -0.77251783059772    1.80176980689280
H           1.62933459676411   -1.60815257134142    0.43367145057478
H           0.86120211732087    1.80111787153035    2.94283016818682
O           1.84798917171308   -1.94345633993288   -0.46665515102774
H           2.63279348559708   -1.46105325999771   -0.73343035669110
O           0.41108958779307    1.24149183257411   -2.52758603047366
H           0.89739678290957    1.23532363869333   -1.68424666179274
H          -0.35923868765138    1.79312705096002   -2.35793058903793
O          -1.33243603794145   -1.02131590345298    2.04173964265562
H          -1.52295013754818   -0.26498718042569    2.60001752731566
H          -0.35504034674228   -1.04692562217348    1.96827989212294
O          -2.29502140498736   -0.68703947107822   -0.42387375122888
H          -2.17285312981271    0.28378210645833   -0.41780403389829
H          -2.05216544174869   -0.96522707262026    0.48707041310234
O          -1.38666839992069    1.85138115882096   -0.17229214624128
H          -1.61728470427035    2.29028474381485    0.64769511049727
H          -0.47824462290835    1.49850628496301   -0.03052544962952
N          -0.27612283332475   -1.28934288604311   -1.96103417438635
H          -1.13832997173646   -1.13866172481377   -1.33120008063732
H           0.53561660685472   -1.60519395537173   -1.36670357905065
H          -0.47044435565292   -1.96559783291032   -2.69086242848112
H          -0.02321824986865   -0.34986096313743   -2.35810375825636
