    26
        -50.46662132  Gyration_radius:  2.47497511229 Dipole_moment: 3.884
 S          -0.28496148303149   -1.29211844693135    1.03534686838298
O           0.25391204395753   -1.58678598230610   -0.29129809187155
O          -1.43693818442755   -2.07634286834224    1.38371520489404
O           0.85502456435996   -1.61986674831184    2.05518522774472
O          -0.54442896654309    0.15486252105512    1.15823537283218
H           0.54994101156914    1.25422458933158    1.13372260327884
H           1.64592838723660   -1.21246976988601    1.64748211582893
O           1.28980476259347    1.92988693519754    1.10057092365210
H           0.97728194996069    2.68671290973933    1.59791893638409
O           2.94359536151599   -0.20544800948058    1.14141677809345
H           2.49296054006777    0.65784772173694    1.21307318282184
H           3.60839965580515   -0.23342376943024    1.83214347611618
O          -2.34637501769040    1.04070393557620   -0.58668773319979
H          -2.89109124701803    0.22980708718125   -0.63931713458063
H          -1.78509746586826    0.88009376375939    0.19920339000525
O           1.97730724178022    1.36591782792845   -1.47494162246920
H           1.74225059000718    1.77904737934172   -0.62414223261657
H           2.48529957027962    0.58400728870079   -1.23779719071099
O          -3.18936682589638   -1.50393195038083   -0.50500933233601
H          -2.53018227538861   -1.77834801888674    0.17238055270412
H          -4.02471350331659   -1.87247694719675   -0.21212497382078
N          -0.36295449745702    0.17518277578934   -2.05905173059729
H          -1.20313715449425    0.66151545874948   -1.61414242523468
H          -0.57011228960802   -0.15608840260843   -2.99389455114879
H           0.48813121732096    0.77983393289430   -2.03416312524210
H          -0.14047797573092   -0.64234321307746   -1.39782447866852
