    26
        -50.44352675  Gyration_radius:  2.64359480422 Dipole_moment: 9.499
 S          -1.00143314602980   -1.28412779054425   -2.51719834616992
O          -1.49943172704739   -1.31640364357526   -1.15140680679849
O          -1.64224497588768   -2.14532537746114   -3.43693550957561
O          -1.05809621122590    0.20216687986915   -2.98319052054013
O           0.50509092292307   -1.57742207995689   -2.49394615071231
H           0.94317170519577   -0.88195215817125   -1.89746509162456
H          -1.62382090098811    0.71534040582788   -2.33954092935729
O          -0.16273583390975    1.87485182158649    0.45368794634770
H           0.07754339302975    2.76861943721018    0.20368277418013
O           1.83899112826327   -1.37130648304029    1.32814010743103
H           2.14146005660279   -2.26476667046436    1.16028071447271
H           0.85538706650515   -1.42240114010838    1.42801043252295
O          -0.79936692248822   -1.22829223502927    1.40973528534627
H          -1.07858765228513   -1.41929694169763    0.49221709743034
H          -1.06793181528263   -0.32190199025246    1.57818729731547
O          -2.41194170176287    1.15872209415857   -0.99813158186442
H          -2.45526578734689    0.20959079453231   -0.79651491666602
H          -1.71529228956519    1.51750216583136   -0.42406867791857
O           1.49339603008506    0.13359457087013   -0.89065148843034
H           0.81987244552769    0.75044133548047   -0.54851377435427
H           1.77496410665342   -0.39885162243706   -0.11713394861509
N           1.26894113873323    1.25646116075521    2.61115716722795
H           0.33255535390052    1.67568936320094    1.30258414821822
H           1.99647501985409    1.91962831710970    2.84840024549530
H           0.74584266200179    1.05648622411774    3.45491868029753
H           1.72245791446683    0.39295358213864    2.32369584645489
