    26
        -50.46624207  Gyration_radius:  2.48376942831 Dipole_moment: 4.398
 S           1.43712646963452    0.36927711068670    0.85752982177909
O           1.02752484957322    0.49908074428130   -0.54711405570184
O           2.77075089363001   -0.14986217999949    0.98024159167351
O           1.38633611571602    1.83059803557164    1.45340319648705
O           0.42929975576794   -0.37108988275396    1.60850356145912
H          -0.75914112295708    0.77389047837797    1.37767857909348
H           2.12293652168625    2.26270581148616    0.98001302394603
O          -1.47127661311901    1.39880560177475    1.13623565303719
H          -1.20557732500922    2.23732523579515    1.51610479899973
O           0.34462620726017   -1.96730879354957   -1.70750231029459
H           0.93614200019658   -1.29085531332499   -1.34262369775398
H          -0.07165459612203   -2.38533682165039   -0.93527813354207
O          -0.96925668671928   -2.37099676611203    0.70262194666889
H          -0.92891401785223   -3.08259070340997    1.34332737776883
H          -0.42004839049531   -1.63820941807366    1.07699581908857
O           3.39113676372602    2.10352206991176   -0.24623017465711
H           2.90849445574880    1.91765018730048   -1.05651671201838
H           3.53813725019203    1.22993170090570    0.16279633760866
O          -2.99071500392324   -0.58600481235716    0.11459373497585
H          -2.74769003371349    0.14893760924787    0.70163047685825
H          -2.45887029812271   -1.34753109370968    0.41047469082375
N          -1.27985755377666    0.10469835103324   -1.74605690165944
H          -1.56308830594859    0.70312018410700   -2.51297760766198
H          -0.84944313201222   -0.79927290441939   -2.06349956895656
H          -0.49174022352613    0.52782727009924   -1.18933275537853
H          -2.08523795992097   -0.11831169142892   -1.07501868275153
