    26
        -50.47036724  Gyration_radius:  2.47585750415 Dipole_moment: 1.758
 S           0.83662117708938   -0.50489467957172    1.72536448498551
O           1.25107444357047   -1.43874055333622    0.69286995462884
O          -0.56314163437527   -0.60965977028971    2.06730820731200
O           1.64679463927471   -0.90280593048767    3.02534512871049
O           1.22211352974570    0.86729875881222    1.40099064963729
H           2.35704301144737    0.70071009506255    0.12127533897623
H           1.09744515776347   -0.53202491474545    3.70725957201625
O           2.82062609108793    0.41167130225958   -0.68836054697650
H           2.91998644081648   -0.53700304122342   -0.57020537017709
O          -0.29185581566444    2.30799632091709   -0.17475305798957
H          -0.10736013550614    3.23322040788566   -0.00584434071775
H           0.27364404913817    1.79532906844591    0.45304421468584
O           0.71033645193815    0.87682982539427   -2.28030942141255
H           0.24941088957290    1.52043308959408   -1.71289494526428
H           1.60050476315716    0.78177278875279   -1.87158317536022
O          -2.42310543812495    0.81527558300629    0.77896768131140
H          -1.86262946956381    1.47660182034263    0.34437930683095
H          -1.82032879836640    0.32495837729123    1.37305127569175
O          -2.80726716913632   -1.26202694938688   -0.74635994545909
H          -2.78342293986972   -0.40660720419225   -0.23226102302130
H          -3.07853477964339   -1.92624817840610   -0.11030849253261
N          -0.25652480524451   -1.41593832274997   -1.47003072641308
H          -0.06924829039130   -2.18801983752698   -2.10077615946601
H           0.30552675024601   -1.52123251578337   -0.58499461381855
H           0.05970657855560   -0.48892174629945   -1.91200283097293
H          -1.28741466743263   -1.37797377365914   -1.22917116525937
