    26
        -50.46662263  Gyration_radius:  2.52586621285 Dipole_moment: 4.228
 S           0.24602752393452   -1.20480688715706    1.64953732697441
O           0.98707147410635    0.05789090757192    1.54960929233250
O          -1.17924449532166   -1.01510228643848    1.62892871565514
O           0.74751683433165   -2.14093626826708    0.65894566839574
O           0.60592064281551   -1.81434103479421    3.06662640499583
H           1.51556245073401   -2.06903613312460    2.95236522306804
H          -0.45402901489456   -2.60365604911393   -0.39374128537921
O          -1.06466626565228   -2.80483933453698   -1.13675897077380
H          -0.73506021946231   -3.60711155858018   -1.54435671956455
O          -0.23743020762629    2.42629493297710    0.98334704043015
H          -1.06289457849074    2.07034206128965    0.61897907462078
H           0.21286845474279    1.65475380348973    1.37162169783950
O          -2.25601988184581    0.75791722239927    0.05418029172578
H          -3.20606467277802    0.73158758139190    0.17835941694058
H          -1.88494940268138    0.07497876747264    0.66707040144719
O           1.48397403778943    2.96535065857740   -0.93310015068161
H           0.77063513613852    2.90582784148461   -0.24264284205517
H           2.19970917173217    3.45518258195909   -0.52616772241522
O          -0.93670879808793   -0.30689536812305   -2.07177022487573
H          -1.52311097104043    0.17205457232986   -1.45585360736488
H          -1.07227716339111   -1.25606328072787   -1.86096404871108
N           1.39079916353189    0.30213758947470   -1.05369736766278
H           1.54936162185025    1.33599258656799   -1.16567983581920
H           0.45866937982592    0.04285446364934   -1.53281904520819
H           2.15111517817241   -0.24625536743422   -1.43931895260877
H           1.29322459158274    0.11587797766431   -0.02269978129333
