    26
        -50.46197625  Gyration_radius:  2.55925753792 Dipole_moment: 8.580
 S           0.47959385429736   -0.01647212966378   -1.62994347579418
O           1.49041566822610    1.02482154057694   -1.64762909185492
O           0.61210356241040   -0.92426527693946   -0.51076871581663
O          -0.87398625187305    0.55115057043770   -1.68958554500396
O           0.65457512088187   -0.88877507086345   -2.92667621134280
H           0.56263867538918   -0.22695859305234   -3.63730612083510
H          -1.40704117536704    0.81226069613172   -0.26936514267078
O          -1.74343603032177    1.03193319749845    0.65257692267008
H          -2.65154909166111    1.31342064356983    0.52781244814709
O          -0.57469343409362   -2.95799642661794    0.49125595725266
H          -0.16714370839802   -2.24663816396024   -0.07013011890991
H           0.12709888584838   -3.59753056232637    0.62781696315351
O           1.06244919946802    1.77698493726698    0.86850482087699
H           0.09911588329785    1.79670339443219    0.83010504873063
H           1.35589756258669    1.54018663813435   -0.03468811051883
O           1.50526190114052   -0.00067515009343    2.74711536833711
H           1.74145536652746    0.55454217019603    3.49214493290982
H           1.48541916212164    0.60577918903790    1.95877341247691
O           0.24146048823813    1.51328777254608   -3.98872126587323
H           0.95517614968932    1.74015029909815   -3.37385824678305
H          -0.54555719101958    1.47112454714908   -3.42866366860790
N          -0.89846867884802   -0.98247318365150    2.22728299485229
H          -1.29461737619523   -0.22332021701420    1.61983733825246
H          -0.80089718306071   -1.84659242140278    1.62010595053208
H           0.07227964098072   -0.66572196844803    2.50952104889089
H          -1.48755099020196   -1.15492643207727    3.03448252703559
