    26
        -50.46485764  Gyration_radius:  2.56487249079 Dipole_moment: 4.107
 S           0.88994209590410    0.14367748312581   -0.21105643867767
O           1.20781980161689   -0.19145386608540   -1.69118405940629
O          -0.43144639085505    0.77690663202406   -0.16241728893342
O           0.88839307944086   -1.10610967609161    0.54250015787165
O           1.92385380672311    1.05357912142796    0.26606248737843
O          -1.69224345855160   -2.73119530906117   -2.01521220434331
H          -1.88250430510079   -3.37283419478266   -2.70109849121728
H          -0.78999447273045   -2.94478417000350   -1.67959043322665
O           0.85604900062488   -3.04122726409634   -1.27013932911895
H           0.88915509554248   -2.44748854470542   -0.49163903398693
H           1.41241014399312   -2.61354184715980   -1.92645778589718
O          -0.50375103650669   -0.29589691992614    2.59749494790907
H          -1.34989759057826   -0.12273587783430    2.17642104036774
H           0.03169326331629   -0.75082050040553    1.90389245523124
O          -0.81638201192342    3.17259332219511    0.85520476263171
H          -0.77905143281036    2.28912542422354    0.41649959711271
H          -0.56158439875347    3.80795092898253    0.18424595775508
O          -1.18141285857758   -0.16744338730220   -2.54580359584335
H          -1.48923239272769   -1.09507355971039   -2.41784867463660
H          -1.35815936505789    0.28682365597721   -1.70722413749595
H           0.31340213638852   -0.18965988584223   -2.17237734487482
N           0.90019191566663    1.93090098015027    2.45093129472917
H           0.24108758333461    2.64373537334134    2.06107378828953
H           1.46641139787510    2.28113903777135    3.21530712105755
H           0.33130432772893    1.07470567208344    2.71590188745414
H           1.48394604600896    1.60912738170161    1.60651330987657
