    26
        -50.44955583  Gyration_radius:  2.43599909787 Dipole_moment: 5.187
 S          -1.09833385888910   -1.20471192132324    0.77850359148635
O          -0.73824450354632   -0.80968963311451    2.10649985268375
O          -2.15132069058860   -2.14808592247043    0.61105191979346
O          -1.48564607181294    0.06023797174305   -0.03380978324671
O           0.14938285798245   -1.76415241853387    0.05216498536336
H           0.97148828945545   -1.20532215204726    0.23329273133173
H          -0.97938666330590    0.89118365149319    0.22896234505265
O          -0.26524559301714    2.23340114492609    0.57347998075152
H          -0.90111129432872    2.84784745054795    0.94340220103118
O          -2.55860715394729   -1.61236353837716   -1.99645168980666
H          -3.19169115311851   -0.89501840879040   -1.93114261617476
H          -2.44998935403901   -1.95012820363180   -1.08911604818652
O           1.29599163520786    1.22663516078119   -1.54773421207077
H           0.68137568732256    1.79488316955854   -1.06793753073688
H           0.75416292877136    0.58091787941989   -2.05438398016702
O          -0.04928530242740   -0.82232336048734   -2.65533325232404
H          -1.00457574712774   -0.99616892841039   -2.52953881121893
H           0.38115919391833   -1.58729550059438   -2.26626150904754
O           2.26725688326113   -0.33757959762060    0.25159871467640
H           1.97818628303401    0.34165126513966   -0.43791945708629
H           2.97897946938366   -0.83724318336336   -0.15339243906500
N           1.15657389226442    1.25163733513978    2.50079514938671
H           0.51891292067516    0.47208413715463    2.66398843133224
H           0.34673755231247    1.94347081494496    1.34007372139320
H           1.39803610802391    1.66655654736864    3.39096957160740
H           1.99519368453748    0.85957623057184    2.08823812323089
