    26
        -50.46203220  Gyration_radius:  2.57202042298 Dipole_moment: 3.158
 S           0.87094509927953   -2.26938447020960    0.53870649060270
O           1.41958701136371   -2.03849124745589   -0.79129749179932
O           1.30021420150712   -1.27928227007266    1.50742944284403
O          -0.57601663524577   -2.41439612454138    0.50920547680096
O           1.46868039483282   -3.65412058157694    1.02327857122635
H           1.37649966589359   -4.20817945987850    0.25451897304654
H          -1.40037377261032   -1.35611746538192   -0.39177289527630
O          -1.77424874645378   -0.67092117791076   -1.00246466019113
H          -2.00492311027104   -1.13931545016717   -1.80583222235677
O           1.66131137954668    1.36697624608378    1.26287081430284
H           1.80864146305195    0.43648730496384    1.51328991608384
H           0.95059841738478    1.67704247509422    1.83179722933384
O          -1.63385823158650    1.95047093618728    0.04823415916803
H          -1.34404973516521    1.44540249449178    0.83096473444888
H          -2.21734383994572    1.34419144532552   -0.41887818118509
O          -0.05544848296779    2.85298624483904   -2.02992422503777
H          -0.64108903634493    2.66996414232280   -1.27006831131859
H          -0.00759281702595    3.80557291329322   -2.10775711756017
O          -0.92993819736203    0.11851929261367    1.97450977349063
H          -1.66339617276593   -0.49941266621485    1.95151898977632
H          -0.13354288194416   -0.44148205569786    1.88290116720340
N           0.71758031539608    0.46445197649693   -1.08026024661152
H           1.04971336286488    0.93975935896423   -0.19820024171654
H           0.88069189396946    1.10159703983257   -1.86393708273715
H           1.18272946677739   -0.47506205579812   -1.14462222454881
H          -0.30537100217066    0.27274313439379   -1.02421083799489
