    26
        -50.45981469  Gyration_radius:  2.38577803349 Dipole_moment: 7.372
 S           1.39613336197748    0.79999824284689    1.10098900202654
O           2.02519312566708    0.24193602343025   -0.09052552871207
O           1.94130495902661    2.04614097583887    1.52415197983441
O          -0.07617915928168    0.88240329729163    0.89015733286649
O           1.57415940189217   -0.26632844188973    2.24432592254968
H           1.19924489576701   -1.09636283666602    1.89041367522914
H          -1.49542450958660    0.86100569317538    0.04208943300305
O          -2.29644244405718    0.81623511863944   -0.52978210698700
H          -2.66718822278914    1.70041540195267   -0.51780125622739
O           0.72880207566870    2.39119486451289   -1.17970213776228
H           0.50090560757923    2.03551064323368   -0.30103434758575
H           1.68236666995570    2.50172921659968   -1.13764469457091
O          -1.74984443225085   -0.82772048117410    2.01538543375371
H          -1.11642226998298   -0.10622276471576    1.80542927573448
H          -2.47184974664256   -0.71978817605739    1.38995451375551
O           0.20722242575281   -2.45453183339517    1.36302083644563
H          -0.61521380529077   -1.97181162345817    1.63289368584643
H           0.33991167902611   -3.15234872237269    2.00681803322888
O           0.88633345779983   -1.72918205332552   -1.26140741542541
H           1.47883886832244   -1.05182196031071   -0.83502938722505
H           0.50241804368156   -2.19784333268755   -0.50776955705568
N          -0.40416218504883    0.25591532720774   -2.34349108396219
H           0.18103901636103    1.07980458392508   -2.03961708593624
H          -1.31585853636547    0.37417966886304   -1.84932838707041
H          -0.50922055441727    0.22209556510041   -3.35119304578298
H           0.07393225735327   -0.63460240640236   -1.96130308979782
