    26
        -50.47154831  Gyration_radius:  2.43864205116 Dipole_moment: 3.629
 S           2.19904696124703   -0.29864996361650    0.67801992063253
O           1.29792596223042   -1.40304167915064    0.37166654856632
O           3.20888728401337   -0.59097919844928    1.64113138674088
O           2.96661824269020    0.02471142317276   -0.69267447793310
O           1.42843828252694    0.92126825924120    0.94005161272158
H           0.01310866970511    0.96673662230429    1.71030136853480
H           3.80179579390911   -0.37883885829171   -0.48897061292514
O          -0.88970676362034    0.98783193255024    2.11598105664915
H          -0.80403829731122    1.48895338278366    2.92799022281263
O           0.57639504950267    1.59806761034699   -1.41253248636025
H           1.26627148197474    2.10333350004631   -1.84458142229672
H           0.93798333100107    1.35887349974812   -0.52261362210382
O          -1.10019927689337   -1.69350567493408    1.50165722874343
H          -0.17355302335384   -1.75064123451523    1.18739794919924
H          -1.15654208445105   -0.83284696501930    1.94896454601634
O           0.27466097535551   -1.04985698723801   -2.03137635675246
H           0.75799949663937   -1.31907634154521   -1.21972953729243
H           0.42975568232035   -0.08981511829273   -2.08680033926561
O          -1.98795025969213    1.59401771853386   -0.34380147704460
H          -1.72999039942679    1.52501407849930    0.59294895220849
H          -1.16717873704274    1.80035452031043   -0.82040298585126
N          -2.06383232739349   -1.00658272961321   -0.84576767440028
H          -2.21171953114447    0.03333123322231   -0.71661464207985
H          -2.87437585817444   -1.46448007702911   -1.24430319116512
H          -1.19404363217741   -1.12032043203611   -1.45558102230378
H          -1.80575701239142   -1.40385852108421    0.10963903496858
