    26
        -50.46400251  Gyration_radius:  2.56963823496 Dipole_moment: 5.313
 S          -1.04197597735714   -0.40592967117711    0.24827068701928
O          -0.92017530268563   -0.28479710266265   -1.22000302613466
O          -1.26409035232118    0.91231678205029    0.82811063752271
O          -2.29953095909786   -1.25895534630969    0.53545873686848
O           0.11344452160747   -1.07784926808730    0.81049667998960
O           2.48402298428877    1.92015196313294   -0.83797710589819
H           2.45355893577102    1.44115905534559    0.04862249333529
H           2.93137512963735    1.32033865668945   -1.43745172313831
O           2.16451573231416    0.57168451505931    1.33673138575222
H           1.52038638947545   -0.13533486640787    1.13430649040534
H           1.69901192768311    1.13980553240936    1.97974613318707
O          -0.78432858703755   -2.72035490629720   -2.27869379935766
H          -1.55819455176608   -2.79694596378416   -2.83956767124284
H          -0.77135362823850   -1.79483353052798   -1.95518985540275
O           0.26614877415617    1.83827080448763    2.81231766810643
H           0.02986699499653    1.41364481540766    3.63836969812895
H          -0.37429563267387    1.51332553318523    2.14769092658526
O          -1.02358787252175   -3.46448064587047    0.29581114864177
H          -0.89081323508327   -3.46155890307327   -0.67519955817055
H          -0.27803006748107   -2.95791957491021    0.65250392980992
H          -1.97071501915695   -2.20858511049987    0.48548742292724
N          -0.09436292877342    2.14014122531690   -1.16732839156770
H          -0.51671039378154    2.16239354196407   -0.22012825483510
H          -0.40968458152943    1.16900950606081   -1.47300911459081
H          -0.44285184364232    2.88366433565745   -1.76303560046276
H           0.97836953322115    2.14163862283182   -1.08633993748566
