    26
        -50.46064425  Gyration_radius:  2.4349275198 Dipole_moment: 7.564
 S          -0.09102447528791    0.64449059508674    1.71612908041338
O           0.95441870416432   -0.31554240677275    1.33205371318442
O          -0.15355384291442    0.90914727666797    3.11008874053932
O           0.28774502432753    1.98314521693538    0.93498968727005
O          -1.36473573729798    0.25804327808280    1.09786806660995
H          -1.64172681599202   -1.09289758997455    0.29191099682018
H           1.15896978728350    2.17558996296491    1.32159316429554
O          -1.85276798192783   -1.83473030110530   -0.33816241794262
H          -2.73364970034978   -2.13003260060346   -0.10325709466375
O           2.70791108305173    1.57674060784887    1.92767048743988
H           2.23876179898369    0.72437137939430    1.96809212848868
H           3.47144463101155    1.44310074817871    1.36057014017939
O          -1.82455911194099    1.92983574992264   -0.85448691367801
H          -1.79785715860905    1.37169250109058   -0.03972769890067
H          -1.19329230681133    2.63084168424878   -0.66921765169314
O           1.53198634339643   -0.40856470370105   -1.22446675987868
H           1.36211869777511   -0.18215265051326   -0.27843284076059
H           1.59793993155359   -1.38105904627073   -1.17838640188770
O           0.82410201223807   -2.74968822405240   -0.07928272420830
H           0.97516358922843   -2.15168170682073    0.66729162816541
H          -0.13402823691055   -2.74938915059374   -0.20137688786938
N          -0.87233592603821   -0.13156117585822   -2.18885960472516
H          -1.36224833204733   -0.90255519993387   -1.68778352522175
H           0.16400968743543   -0.19426248019920   -1.89077019325499
H          -0.98580984904630   -0.20002758702227   -3.19374719831533
H          -1.26698180528219    0.77714579300158   -1.80029991039438
