    26
        -50.47168437  Gyration_radius:  2.4195845977 Dipole_moment: 4.564
 S           1.23501015239982    0.69027495432645    1.22916894643251
O           1.87527458125633   -0.51099940988315    0.70746148794708
O           0.79568035714536    1.56659148525979    0.16570652172917
O           0.19480632316179    0.36868294617991    2.19212153904323
O           2.33577369514944    1.48590386189016    2.03657724499588
H           2.33629271651593    1.02968449803946    2.87101227239313
H          -0.25737895175834   -1.17076293866639    1.68448106739551
O          -0.47200478810807   -2.04582444350763    1.30312007549505
H           0.37076895160117   -2.50089410452288    1.24949165569866
O          -1.24485732128763   -1.54462416890177   -1.23703317196970
H          -1.12210285521939   -1.86291237017355   -0.31870291640571
H          -1.58228064958497   -0.62018896572704   -1.13930348052130
O          -2.51733385670825    0.46588546783213    1.83020863036818
H          -1.59085335073564    0.57349606410802    2.10509162562558
H          -2.71220524405654   -0.46761674280565    1.94164501821678
O           0.71734037074679    1.70165869250775   -2.51274644059284
H           0.89743739261231    1.93674885439144   -1.58458852199168
H          -0.23651428228815    1.78961218787048   -2.60903932797858
O          -1.70664716498116    1.00910706574229   -0.70013284988751
H          -2.25314250697855    0.94319879957895    0.10584533752426
H          -0.83644900270521    1.29636602228314   -0.36889836924379
N           1.17816248350582   -0.84059635249998   -1.81237907370228
H           1.76398201451946   -1.44787052757922   -2.37401916978028
H           0.17683456578285   -1.23862074172209   -1.68187938043768
H           1.57052674421425   -0.72124289101522   -0.84066171592363
H           1.08387964580225    0.11494276699210   -2.24254699443160
