    26
        -50.45195818  Gyration_radius:  2.4790446395 Dipole_moment: 9.573
 S          -1.41921158416898   -1.81993421553652    0.21751533620278
O          -1.41168083707980   -0.97621731057371    1.42008033980564
O          -2.45398600200642   -2.79175130599130    0.17367657977853
O          -1.35765110972568   -0.92743854176476   -0.96596123420934
O          -0.03009911912944   -2.58075478170245    0.21585886351483
H           0.64879336431527   -1.91972181797441    0.00318959972341
H          -1.42535457890624    0.44344794830780   -0.37828498533998
O          -1.40508524411041    1.36054606330222    0.06849466237379
H          -2.01896842671186    1.24922752338336    0.79938895209171
O           0.56375206357666   -0.22343170518991   -2.63383250205716
H          -0.24631557849238   -0.59319722391100   -2.22129415593309
H           0.45080451703881    0.74412337675479   -2.58702493945457
O           1.93256888427839   -0.82150250895751   -0.56446408673143
H           1.47704268544251   -0.60415144545600   -1.44589441984931
H           2.70463856996011   -1.34817795978764   -0.77254639758963
O           0.47878398518627   -0.56238569742425    3.06621577589988
H          -0.25656235830760   -0.88307044469829    2.46320891138603
H           0.06513310773709   -0.41465455712578    3.91767327111968
O          -0.05743879045553    2.41304486891905   -2.09502735688976
H          -0.60593475468184    2.78437465196761   -2.78781877109867
H          -0.65337933114325    2.18690197231428   -1.36350954012665
N           1.02181541632189    1.08465609426785    1.09906219138167
H           1.53604542291828    1.94997393875090    1.22116452464608
H           1.52069392359074    0.44089495465722    0.45064831011511
H           0.89135088878193    0.54875098955896    2.00665571949128
H           0.05024490577498    1.26044716391301    0.69282533174947
