    26
        -50.45720526  Gyration_radius:  2.63601118036 Dipole_moment: 2.997
 S           1.64922372847420   -0.89184634802116    1.82724232642950
O           1.82643424115268   -1.49440850954919    0.51221056772984
O           2.77546287640345   -0.13552875749992    2.29032992507396
O           0.36871601836854   -0.18060239088126    1.89515534105883
O           1.48210228087606   -2.11145246175044    2.84981231600049
H           2.30729845337616   -2.09614505932152    3.32472840979069
H          -0.91012140556391   -0.73973492432549    1.16847121073221
O          -1.71536445884585   -1.00253139989389    0.64191245536326
H          -2.26146961312323   -1.52667596025185    1.22849412939352
O           0.26561242589577    1.56817106424386   -1.67909703135341
H          -0.59316870343955    1.75622623342540   -1.25183595218883
H           0.92747423004360    1.76854359988718   -0.98702479024599
O          -2.07451119605663    0.07586083972917   -2.77175006637155
H          -2.48897933086180    0.56790678181735   -2.05617306789590
H          -1.54493197526024    0.71534095656096   -3.25376851126455
O           1.65308176276608    1.76804984796035    0.60325248567491
H           1.08249592160455    1.19124261796397    1.13947050562334
H           2.53751399940688    1.55538118328450    0.91545724395007
O          -2.04300934488349    1.56764951790818   -0.20714711316624
H          -2.02175011796379    0.64808208055101    0.12502848234198
H          -1.85368617279297    2.12446782247307    0.55037674349809
N           0.12724339399003   -1.04425712923868   -1.39255108853687
H           0.21481128769503   -0.00387257651748   -1.63328832298027
H           0.86620901648934   -1.27624729590214   -0.65795638611497
H          -0.79501836624185   -1.18626548522744   -0.95732769748746
H           0.21833101848355   -1.61735426739780   -2.22402211503098
