    26
        -50.45869646  Gyration_radius:  2.39053911067 Dipole_moment: 8.399
 S           0.51526519730277   -1.60642068746430    1.18050028076018
O          -0.63096483119028   -1.65215940133685    2.05980644868578
O           1.15614202482254   -2.84661674953683    0.86848357911364
O          -0.05846654260062   -1.04342306273594   -0.21808997901845
O           1.47705565226996   -0.55448388693681    1.57115608766010
H           1.03383573739277    0.85886993736064    1.26222010059846
H          -1.03229166273861   -1.01459170140965   -0.16996219751088
O           0.76950437034386    1.79311040811285    0.97068779915813
H           1.29713299368523    2.38543459669900    1.50893166764547
O           2.59367599978186   -1.08624485484017   -0.72111837816327
H           2.39475560644342   -0.87294526354132    0.21764960515496
H           2.26321150734228   -1.99029592297408   -0.78534526213621
O          -1.71307512692692    0.73333314576989    1.86604180751877
H          -0.96506269683341    1.28629579624347    1.59986394930968
H          -1.31962736385593   -0.12906089244290    2.13803831623986
O          -1.44939984434991    0.80348594282161   -2.29729465959011
H          -1.90720129784755    0.19754281036586   -1.69069659657503
H          -1.89692257596376    1.64724943474504   -2.20547315008933
O          -2.68180896772298   -0.51074063345094   -0.19569689953775
H          -2.46631260174301    0.06777502661846    0.59156629170679
H          -3.17198111352268   -1.25601993226180    0.15538566526128
N           1.16599257158727    0.97227958679850   -1.56726857570925
H           0.20133953996639    0.77002667843480   -1.92015551489524
H           1.68922433956297    1.54327025755431   -2.22295545325220
H           1.05263884061665    1.44609592588805   -0.63893835952942
H           1.68334026415381    0.05823344138482   -1.35733656292604
