    26
        -50.45856491  Gyration_radius:  2.45629376781 Dipole_moment: 8.134
 S           1.26206581309117   -1.54020409092292    0.83363844717855
O           1.75220444227715   -0.18263163586279    1.09466771063158
O           1.74255264179411   -2.55343625668078    1.70196204898640
O          -0.22598233222764   -1.49234678085882    0.76749018790281
O           1.71303521598635   -1.88454715305674   -0.63871972914618
H           1.52668361164751   -1.10630843909355   -1.19717187351863
H          -0.79054175789415   -0.10652327200394    2.45364623560652
O          -0.26898983242281    0.70134542921138    2.47985429126256
H           0.60007586533157    0.42627799072665    2.10392370304068
O           1.65052463904263    1.99323998060160   -0.39139311036489
H           1.86558493562290    1.27934256380254    0.24771516200329
H           0.81385394558606    2.36713863756237   -0.07656014550266
O          -0.96806357663677    2.38943054537520    0.61743845234187
H          -0.72285350130456    1.80617401321704    1.39319913249434
H          -1.41346450640104    3.15327521489868    0.98467850970520
O           1.18349375011124    0.25607190529187   -2.23468154797213
H           1.82818831563845    0.26538087932073   -2.94304829577685
H           1.43482477995738    0.99991677369471   -1.60418010095412
O          -2.53235844539083   -2.19866217936668   -0.57212069336538
H          -1.75258755766943   -2.20444372251380    0.00798575236950
H          -2.87476737643735   -3.09289941697586   -0.57108125246699
N          -1.18435253228360    0.17130974222431   -0.91687271976567
H          -1.31888359615647    1.10396266903449   -0.48859679494690
H          -2.05948186829544   -0.28733346521870   -1.17344645050261
H          -0.53203918126131    0.22213828696108   -1.70925488954354
H          -0.72872187169298   -0.48566818936080   -0.16907200970084
