    26
        -50.46423804  Gyration_radius:  2.47228617649 Dipole_moment: 7.217
 S          -0.04102366547040    0.94147442770015   -1.34514045154001
O          -0.33405331606575    1.31622143085037    0.05325541629210
O           1.33522357948403    1.22372429624938   -1.68161940735979
O          -0.36450958249765   -0.47423938273166   -1.55519787582933
O          -0.96423713141256    1.78655256767079   -2.24445812248076
H          -1.83191368694756    1.80828872300117   -1.74115549570315
H           0.49092387038461   -1.53799967975826   -0.78630224900777
O           1.04162265517736   -2.13210282818272   -0.19800956552032
H           1.71454119789587   -2.50609921003413   -0.76887692175107
O          -2.93060285291468    1.72035790212277   -0.58398590724338
H          -3.06638010484512    0.75324395741181   -0.45845490588706
H          -2.27365523072416    1.95326497073977    0.08437009970056
O           3.27279386103218    1.32001558828418    0.07572955852368
H           2.62762360118910    1.27562507212832   -0.67418749025570
H           3.52913128510391    2.24170804650430    0.13570343146342
O          -0.86706678269399   -1.98454846971172    1.86102828795427
H          -0.29413074450066   -2.25929410383774    1.13090453935221
H          -1.40343799342916   -2.74654164808666    2.08711271603896
O          -2.58773441934952   -0.89252335314424   -0.15271480101652
H          -1.84260760672370   -0.84145739265942   -0.78267055289150
H          -2.17147549057706   -1.06622264748533    0.70357967501916
N           1.40645038790755    0.01127559347101    1.40808093550268
H           1.39722167974434   -0.91840162743708    0.93685269294242
H           0.60434185851203    0.57312140596207    0.95144299698735
H           1.27038142546954   -0.08498037061181    2.40848519462920
H           2.28257321627336    0.51953676158316    1.13622820206722
