    26
        -50.46282584  Gyration_radius:  2.48828636512 Dipole_moment: 6.998
 S           1.45790277556724   -0.76320329038046    1.31156204195835
O           1.00781333835981   -2.14695913809588    1.20870146503845
O           2.16150140631343   -0.28307599982369    0.15347384684599
O           0.34204374121335    0.10743455240828    1.69082070032935
O           2.47608667162953   -0.73593398284907    2.52215928128544
H           2.11861499738316   -1.38637557433967    3.11795130256050
H          -1.14279138241736   -0.25538597281037    1.23987843784518
O          -2.04402417746442   -0.50075168325668    0.89903860069086
H          -2.57867847360735   -0.69656860735153    1.66980674785893
O           1.11332771654004    2.30112356229105    0.32830310667221
H           0.76641680807516    1.58653134471086    0.89176574313174
H           2.00265096305978    2.01094867846802    0.10702828155347
O          -2.36079158376284    1.95288124290373   -0.36714629627598
H          -1.87742199016477    2.53568873351212    0.22376823635911
H          -2.35457947955751    1.07613148459801    0.04996988790912
O           0.87010195564429   -0.51265548595018   -2.19322325051263
H           1.53537023371119   -0.41383216127088   -1.48494684283376
H           0.45270901365992    0.39078891965839   -2.27456888795419
O          -0.18678768179813    1.86817497625044   -2.03216284901902
H          -1.10458348487338    1.89130834100535   -1.70980135555689
H           0.34115816853814    2.18432327760759   -1.27198153086741
N          -0.62707747993373   -2.06626946362342   -0.82912180287987
H          -0.93416374783741   -2.92018398299781   -1.28152494350779
H           0.04272123470191   -2.26298648571693   -0.03321770298973
H          -0.05993847146613   -1.41245569992117   -1.52177348390682
H          -1.41758107147646   -1.54869758502732   -0.41475875371269
