    26
        -50.45967442  Gyration_radius:  2.59035997502 Dipole_moment: 5.227
 S          -1.08202791703325   -1.19110535011744    1.98649423902503
O          -1.09672361932614    0.24958266477497    2.21204114714886
O          -1.76025155950000   -1.96976048347172    2.96830826524770
O          -1.90491673353203   -1.39779288165429    0.60289226042353
O           0.26223601751737   -1.64072882921740    1.61892346075608
H           1.09438176428076   -0.26665146339006    1.43943070979953
H          -2.80423990425230   -1.43053204391501    0.91080991327879
O           1.43603741531452    0.63863981131280    1.22371881770302
H           1.11817970572064    1.18029440726441    1.95056911760827
O           2.63747557283631   -0.28734518529413   -1.23511584571537
H           2.02825734684916   -1.03833078817462   -1.27196952924388
H           2.58863806828464    0.03701184084553   -0.32753480726619
O          -2.48675292806787    1.54271534108434    0.45411271759083
H          -2.69316925108592    2.41169461908321    0.80111104284149
H          -2.04229778218438    1.05009681732118    1.19143990595862
O           1.46291291730681    1.57131164835290   -2.76752095613273
H           2.03918243917527    2.31377236452957   -2.94923459957840
H           2.02227117149565    0.87854355163214   -2.34454310474326
O           0.33125200184250   -1.89502567610072   -0.97391056500088
H           0.33034729344917   -1.90266949024407    0.01544868397246
H          -0.24274035295632   -2.61465881164444   -1.23847859815430
N          -0.26702025705466    0.76876855625320   -0.87032506312637
H          -0.30454601905514   -0.25109687395904   -1.06746209780285
H          -1.20417025989406    1.12465360210111   -0.59270426549422
H           0.38486107914400    0.86543761668694   -0.05073444759115
H           0.15282379073936    1.25317506593038   -1.68576638150580
