    26
        -50.46863464  Gyration_radius:  2.40846706407 Dipole_moment: 3.386
 S           1.48201818697406   -0.66821921528203    0.72290879870075
O           0.74576299868270   -0.42119397321043    1.94867554793122
O           0.67498956807972   -1.25663409240802   -0.31970386577074
O           2.19038338686269    0.51877802050365    0.26056682666418
O           2.58875151434623   -1.74246585635429    1.08663034973885
H           2.97178139155812   -1.38919892818271    1.88276005273305
H           1.46432318526106    1.99334077096952    0.45656149365688
O           0.92506342070324    2.81854512171486    0.48067512442499
H           1.33741288408483    3.38692119847606    1.13235986148834
O          -1.31246049498091   -2.27515958357667    1.21371380879649
H          -1.39259103106268   -1.83001625200399    2.05924735759809
H          -0.48967527016689   -1.93375848377874    0.82353679175119
O          -1.16949647817676    1.19276888960116    1.11221062494204
H          -0.60216637518065    1.96643896292282    0.93782193402259
H          -0.56045310243827    0.54573201779517    1.52809766381305
O           0.85746210128234    1.26679946513634   -1.98957710912751
H           1.39605518034714    0.74380097755958   -1.36832048358225
H           0.89105046357503    2.16462437604630   -1.63944592197274
O          -1.62106305954105   -2.25518277742251   -1.49531453757792
H          -1.86037389439945   -2.49220011419064   -0.58399305178785
H          -0.65500853779360   -2.28790774520317   -1.49253932804506
N          -1.59716720855083    0.39684300043670   -1.36640320687834
H          -2.35821242688563    0.86981398408854   -1.84115705606069
H          -0.66220555131079    0.68335632612206   -1.75962753809297
H          -1.55861263161917    0.66255498153071   -0.33619631862129
H          -1.68556822963225   -0.65838107128059   -1.45348780875765
