    26
        -50.45976932  Gyration_radius:  2.74392084781 Dipole_moment: 1.884
 S           0.64116658633886   -1.74653187874229    1.27748881690963
O           0.09196300123832   -2.16902022207934   -0.00486539250744
O           1.99026499608090   -1.22316725032951    1.14617465461680
O          -0.23911100811644   -0.84091839016684    1.98782414577922
O           0.73895018105403   -3.05667565935680    2.17340745287738
H           1.30224687030728   -3.63858651745518    1.67085674294427
H           0.81743263407481    1.36039013553860    1.78288098869201
O           1.29965818389775    1.25382176514141    0.95866097270553
H           1.70223750486468    0.34796151726868    1.03499991789432
O           1.07690521604598    0.96016587444538   -3.07556010807828
H           1.62628195976469    1.56184473671801   -2.52921173037476
H           1.66949430046360    0.27709252553998   -3.39388710182806
O           2.44035386690776    2.43109872355703   -1.26868885181461
H           2.31898478924980    3.37613838730294   -1.16548081275453
H           2.18315838002766    2.02496459888027   -0.42413108880201
O          -2.83423931053789   -0.93895541616342    1.63521546739571
H          -3.17411574998964   -0.64076783030222    2.48055250696062
H          -1.85524707120883   -0.98892135755248    1.74765196633715
O          -3.07144000027636    0.52088029016930   -0.56257752091757
H          -3.05644282002133    0.01708618701282    0.28826787486801
H          -3.63011952457206    0.01397544289643   -1.15394424190587
N          -0.41850015266611    0.22798503346821   -0.93745728992468
H          -0.27290414635712   -0.78927136575339   -0.69747972943891
H          -0.00153199643444    0.45366872349408   -1.86626239572030
H          -1.44215935701193    0.44249675872938   -0.89266881961395
H           0.09671266687964    0.76324517774306   -0.21176643428585
