    26
        -50.42389698  Gyration_radius:  2.63558897749 Dipole_moment: 10.125
 S          -0.00325709561540   -3.06903745603286    0.03827182652056
O          -0.62081299583013   -2.01559268573733   -0.74743105743326
O          -0.20537614613943   -4.39391708845054   -0.41680675171708
O           1.50995992318027   -2.76045030543133    0.14087019878278
O          -0.51317368225545   -2.94676441238802    1.49039007849399
H          -0.48947579937998   -1.98003203060249    1.77488084911416
H           1.65080218485667   -1.79042539678683   -0.09997325271992
O           0.65596706177687    1.44488267148786    0.90626201020665
H           1.16254210723421    1.89122592910101    1.58163063064086
O           0.90589753578869    2.37782986799469   -1.46893738902904
H           0.88775609252029    2.10616608430763   -0.49427935747614
H           0.61930952016285    3.28995335563179   -1.50843937302722
O          -1.83608470970333    1.76488315295912    0.53254920531517
H          -0.84653942076765    1.71937515065111    0.77295912666304
H          -2.08864295687083    2.68659184563310    0.57545252985908
O           1.82754308443962   -0.32620203134604   -0.49872050531899
H           2.74684188666534   -0.07079316912134   -0.58112579401319
H           1.39247078044977    0.35096788796281    0.12158112659719
O          -0.55970533803058   -0.47529832823480    2.15650056625042
H          -0.00838254323317    0.21728747792034    1.68026285655162
H          -1.46968220880745   -0.20610281745111    2.00811686238044
N          -0.94899799330817    0.43632616299788   -1.61565509494731
H          -0.66818041355311   -0.52077317869386   -1.27018530323829
H          -1.49002118159182    0.33221721678633   -2.46708988904071
H          -1.50500804741872    0.89394337021069   -0.85066634865291
H          -0.10574967456884    1.04373876663471   -1.76041775076132
