    26
        -50.44035874  Gyration_radius:  2.47484187313 Dipole_moment: 5.844
 S           0.74826312031041   -1.74064999978565   -1.56756205821902
O           2.08255656889839   -1.38809513680155   -1.13557841982843
O           0.56816720830543   -2.90363923426759   -2.34519661488549
O          -0.14245571650305   -1.83056657708233   -0.28540860055006
O           0.14896943083992   -0.50853547564685   -2.30038889012691
H           0.77007970040378    0.27183982124373   -2.13147292211114
H           0.38767880165844   -1.44341341482902    0.47139627909750
O           0.48072723132374    1.72019728290656    0.72670270585179
H           0.47571532030733    2.63541774088127    1.01037795827975
O           1.51574326187395   -0.74157506316130    1.36430876054103
H           2.15389334945537   -1.00069161285868    0.68023917364984
H           1.32968109569746    0.20475236983793    1.23121352307091
O          -0.86603167585575    0.04063451335512    2.76557149434253
H          -0.16189557200007   -0.59793785889966    2.90681171137219
H          -0.48370499707615    0.74308206554032    2.22429553429943
O           1.85074429201219    1.24934102666855   -1.57492187506688
H           2.44456505018422    0.50449876526271   -1.40151205736525
H           1.47368961888397    1.52760741221885   -0.71406734734713
O          -2.62926142113976   -0.89031810006902    0.85149065796545
H          -2.19083888968727   -0.64114114630156    1.68423578079024
H          -2.06238597960101   -1.55169085413893    0.44113780123553
N          -1.65124634430352    1.28204606321239   -0.63273306237982
H          -0.40230967079321    1.57092681505256    0.18369154059445
H          -2.17771312132586    0.56630618318875   -0.11428743919167
H          -2.27485925151735    2.05665735516628   -0.81950712223641
H          -1.38777139044340    0.86494705929446   -1.51883651181652
