    26
        -50.46179518  Gyration_radius:  2.4856351092 Dipole_moment: 5.314
 S          -1.42444151818659    0.52538666452470    1.13101999241693
O          -1.10146882956490   -0.10261840952419   -0.13483557787465
O          -1.18470451717874   -0.35328656440132    2.25208859795175
O          -0.77371010856286    1.82749785873858    1.25697162667945
O          -2.98390564458480    0.82193727069842    1.12530152125900
H          -3.10756926949820    1.50672087468709    0.47345800110839
H           0.66807129557555    1.06041527999883    1.43136798456266
O           1.42477225127671    0.45138865987743    1.58114645102693
H           1.20236722296581    0.02318574308386    2.41284817103192
O           0.64598944877011    3.04526936692137   -0.68480609907784
H           1.54065943701567    2.97180678363536   -0.34766997063334
H           0.06508304276763    2.72836296352067    0.03272244917466
O          -0.67657789431722   -2.70850881348894    1.21858764043298
H          -0.65007799100692   -3.28661926386102    1.98324810722543
H          -0.98336406382163   -1.83252157299474    1.55280945432910
O           0.99820161801307   -0.97026647085644   -2.71390869460070
H           0.36929855034448   -1.54733279845010   -3.15089016403629
H           0.53777418629353   -0.08051078304006   -2.66846909538264
O          -0.42515335104323    1.16505666078038   -2.35306620947761
H           0.02248942643303    1.94867961517961   -1.98665764870131
H          -0.80919245416379    0.71842283705659   -1.57001847787256
N           1.34426994534782   -1.59567747837051   -0.17227702480484
H           1.15969993554865   -1.33412303950362   -1.19222735122783
H           0.52516258155809   -2.11701008789231    0.21980448187333
H           2.19491218180871   -2.14533302740629   -0.10125621234540
H           1.42141452820866   -0.72032226890336    0.40470802696761
