    26
        -50.47312147  Gyration_radius:  2.4439307584 Dipole_moment: 1.589
 S          -0.75977705385986   -0.44708348671777    1.84710148728418
O          -0.67653768944806    0.99856877375212    1.92222348954871
O           0.52057357116356   -1.10802912396997    1.74600349110882
O          -1.40422436787247   -0.91241407667299    3.21636954733922
O          -1.68229373140389   -0.87774807063364    0.79678695615223
H          -0.85932991420704   -2.03138775487633   -0.06243833896091
H          -2.07989079507818   -0.25230098451802    3.32343752671006
O          -0.15345327185351   -2.60118797373721   -0.44256297236154
H           0.41575937284218   -2.76605909815438    0.31765432567519
O           2.51561771158395    0.09020086511729    0.46278308318862
H           2.19658236271075    1.00813558574398    0.46235717811071
H           1.90958383747165   -0.38140331755887    1.07251316338071
O           0.90270822340107    2.31300726526040    0.34335857041438
H           0.27586729994302    1.82757721761791    0.94103189341951
H           0.89948479689195    3.22233023311154    0.64581990260038
O          -0.07018415752830    1.40866540234296   -2.05156028362924
H           0.29775139992689    1.89448049806320   -1.29046412433081
H          -1.00609368152606    1.24036362947380   -1.80673100825865
O          -2.48584004419538    0.76894538676716   -1.09865272647263
H          -3.11057463623481    0.23451151894804   -1.59146114955432
H          -2.21220963203497    0.22292463232000   -0.32961886744499
N           1.32213728771480   -0.78481506130352   -1.71194710460807
H           1.86516988994235   -1.10381843170498   -2.50581535982185
H           0.72409713607805    0.06574764897603   -1.96648219971162
H           0.70654419159696   -1.55657481943154   -1.33285596250138
H           1.94853189389516   -0.47263643814899   -0.90685052727108
