    26
        -50.46312431  Gyration_radius:  2.44036354905 Dipole_moment: 6.355
 S           1.85948124668064   -0.26016758261052    0.10229881164166
O           2.40599644475350    1.07537662721704   -0.15755546326058
O           2.79237313859128   -1.20162665709929    0.62971280895420
O           0.74925137131868   -0.01427377424365    1.21419986260883
O           1.11183114672472   -0.73540354650832   -1.07404722811802
H           0.00092850911613    0.03984347276694   -1.82524504430035
H          -0.15746498290703   -0.11238390445508    0.82481883638449
O          -0.74204330478633    0.59845290702786   -2.20256533628515
H          -0.80627400103792    0.36060253300400   -3.12824605598415
O           0.81547789729387   -3.03165771586695    0.20852724728120
H           0.87068993617818   -2.36689720667981   -0.49953137843887
H           1.58493701633477   -2.81452657157286    0.75077641413083
O          -1.72179845170800   -0.09087435879627    0.32587022688774
H          -1.87845188136276   -1.05168196576025    0.50131452995427
H          -1.67185637688958    0.01485347635686   -0.63498215802825
O          -0.98527022924306    2.23707371376509    1.59867973624869
H          -1.56228025790637    1.51693198862023    1.29504125781178
H          -0.31164138767644    1.80535794743288    2.13558711575503
O          -1.74341491434607   -2.66593826252803    0.87296829892665
H          -1.83903859766669   -2.93488724999865    1.78759498699060
H          -0.81951602764637   -2.89790274357775    0.61712207048800
N           0.39857760688966    2.53512587127521   -0.68050456063137
H          -0.12997432715241    2.00226928074532   -1.39694865751883
H           1.31578076231897    1.95671850724330   -0.46693038937196
H           0.62930985919814    3.46741859082375   -1.00615186995252
H          -0.16561020517125    2.56819661347677    0.20819594789046
