    26
        -50.46544358  Gyration_radius:  2.48660549294 Dipole_moment: 3.839
 S          -0.20479072214251   -1.59462462974717    1.51969058781405
O          -1.57605020984829   -1.94468684254205    1.19634933023960
O           0.66693839377069   -1.54715495360265    0.37101012462399
O          -0.13684718627718   -0.37195380202527    2.31956475133949
O           0.33987253120588   -2.75701907430427    2.45129610463964
H          -0.35717465116024   -2.85400549345368    3.09228393234759
H           0.53936093892747    0.86640008592820    1.54760819476072
O           0.77433897791332    1.67763209293888    1.02660353883964
H           0.41372855712165    2.40927054585195    1.53184786646583
O           2.54337018552804    0.14144789015667   -0.54231946077448
H           1.98505895778342   -0.60773038419594   -0.25918052449626
H           2.30745542640572    0.84976405538834    0.06901619533225
O          -2.17743223365383    0.82950990870834    0.96982656958543
H          -1.53888264625275    0.43150028904667    1.58325045792959
H          -2.82360445814890    0.13626262174337    0.81943845862847
O           1.58781906991669    1.05581072887622   -2.82003893462185
H           2.19769492572604    1.71497168955755   -3.15254940660849
H           2.04203426118532    0.62043606970064   -2.05044069517005
O          -1.42938553014033   -1.35526967714123   -1.34689829454019
H          -0.60577970750528   -1.81063788348780   -1.54775080284661
H          -1.61767931963938   -1.61531541641241   -0.41511421157849
N          -0.59209195701313    1.16330442135298   -1.28332025924047
H          -0.97164354600932    0.16617074881913   -1.27932318588580
H          -1.36466759069177    1.80662264754093   -1.42077117520903
H          -0.14410624751447    1.35284896012777   -0.35486304922253
H           0.14246376051924    1.23644539117429   -2.02521610235154
