    26
        -50.46265521  Gyration_radius:  2.5663088915 Dipole_moment: 5.156
 S          -0.26879566280434   -1.71325091763582    0.22534843763751
O          -1.67404260063006   -1.32898391448128    0.16558587888799
O          -0.03499814422066   -3.00849983474487    0.79199835540083
O           0.21505121191748   -1.74657003018198   -1.30988841308213
O           0.54290056221035   -0.63618928044472    0.78327521429667
H          -0.14328397937030    0.54598596569218    1.70610492401087
H          -0.32553673423749   -2.49590527638289   -1.63949681549343
O          -0.53288745195557    1.31259659557429    2.18816453374169
H          -1.04828400633881    0.93830008671706    2.90419833922035
O           2.41603171154917    1.09399368621579    1.62518642606881
H           1.78566915180275    1.49425208627928    2.23379002554692
H           1.97891082644107    0.27963383052067    1.32177265326454
O          -1.90415134723116    1.24829686702775   -0.16530568084190
H          -1.56372196332291    1.55409272572276    0.69685561370202
H          -1.99629592650155    0.26965402955900   -0.04989036640782
O           2.13331287735751    2.49704459804437   -0.58154765488609
H           2.38225782981905    1.97458025225954    0.22674558998837
H           1.86369665860751    3.36127821332600   -0.26552082374045
O          -1.55467985617109   -3.66260228973092   -1.29004599907581
H          -1.05644686105899   -3.89861197722631   -0.48882838823739
H          -2.22695559642305   -3.04703299991303   -0.97316542163845
N           0.21164954893518    0.99762187176660   -1.64271216293704
H           0.41101751157469   -0.00557476764168   -1.49931364363250
H           0.08060952334130    1.18737960744322   -2.63156573030279
H          -0.69548645255676    1.20478272851350   -1.07849259904450
H           1.00445918929446    1.58372814381546   -1.25325228243847
