    26
        -50.45712011  Gyration_radius:  2.46155581748 Dipole_moment: 9.575
 S           1.77362994402989   -0.25394221397449    1.01533227791008
O           1.54149260927968    1.12511698241493    0.52830021722734
O           2.83723362103424   -0.35731790977588    1.95226637095278
O           0.40808785980116   -0.66754172577492    1.70928451447936
O           1.85003795405148   -1.16923565843449   -0.12881554756974
H           0.49043509476345   -2.03170595899109   -0.19655452234620
H           0.20766936728168    0.12260035450287    2.27039056859057
O          -0.39551102333365   -2.47785793598129   -0.19782624086559
H          -0.51506958146656   -2.74903493015155    0.71534051423273
O          -2.23091179061503    1.69333522280589    1.00128205335606
H          -2.99202867810930    1.61480051714565    1.57875338292559
H          -2.16803286052083    0.85864768111893    0.50879910071866
O          -0.00468938760703    1.71353917647635    2.63498796003229
H          -0.80664034561240    1.88881737974207    2.10821107517545
H           0.73736841352513    1.90558858377430    2.04140681466887
O           1.63323319149454   -0.82872647266711   -2.71627469519645
H           1.92457583640711   -0.98130151702362   -1.78693360202024
H           1.31068491278054   -1.67868882654131   -3.02258269377998
O          -2.01597158145319   -0.51288708656681   -0.68611497150256
H          -1.41040752320026   -1.27861251337348   -0.44639864032775
H          -2.72136989787588   -0.88846130927534   -1.21504189068782
N           0.08773021443340    1.00699948703623   -1.55709978268987
H          -0.80095335544019    0.54534000534253   -1.28693270969734
H           0.62908222506525    0.37520153025821   -2.19753015989178
H          -0.07795589956322    1.91820378265194   -1.96968245569436
H           0.70828067085337    1.10712334525559   -0.65656695798838
