    26
        -50.44140945  Gyration_radius:  2.50276603908 Dipole_moment: 8.676
 S           0.70572323655070   -0.56438560490829   -2.37674490987049
O          -0.23124217653101   -1.46304836998135   -1.76057433384487
O           0.49769845144594   -0.25140798407822   -3.74468641981118
O           0.68117734027464    0.77435005683457   -1.52492974945098
O           2.14060087076138   -1.03120505245120   -2.13013747272149
H           2.18007366717122   -1.21878763958947   -1.13194863189742
H          -0.24439307395566    0.95208522531441   -1.20476154980261
O          -1.71304129463529    1.26181064427578   -0.59221884337567
H          -2.27492648621983    1.51790020285130   -1.32484650108467
O           2.10057437241936   -1.25462841830837    0.40340002206472
H           1.20657368068487   -1.40209555556022    0.75376672251385
H           2.32054524936055   -0.32385739852609    0.63357870421437
O          -0.40142787424894    1.77161332048389    1.73524513621520
H          -0.85616325143138    2.42095967872376    2.27381127623822
H          -0.88579389937004    1.71287037898116    0.89092617461327
O           2.20629731299829    1.41103207756029    0.73567613877781
H           1.40427525273896    1.64997259211860    1.22220071372494
H           1.97023142039283    1.48988209667515   -0.19736671604575
O          -0.09513737568436   -0.96812060942980    2.12385480797104
H          -0.18020410958212   -0.00212366089198    2.04599977101545
H           0.43037224978629   -1.13645552715443    2.90828766732883
N          -2.27459765525106   -1.14744904058121    0.10570530038001
H          -2.01333755333161    0.31423229232948   -0.29998041499952
H          -3.16976286438835   -1.61610486875077    0.06497997429649
H          -1.66358330205682   -1.54559625238468   -0.60862653709668
H          -1.84053218789983   -1.35144258355120    0.99938967064754
