    26
        -50.46544088  Gyration_radius:  2.54258800559 Dipole_moment: 6.083
 S          -0.14275444652269    1.54511564047736    1.61603782180128
O          -1.10400894406785    1.13586409145006    0.59881262034704
O           0.15760369254949    2.94899587016555    1.59960556782738
O          -0.83093371059400    1.24918439538317    3.02024177615945
O           1.03555021732345    0.67842853841278    1.58539271361015
H           0.98352789666566   -0.81252478501149    1.13536242750197
H          -1.18207133344913    2.10358409038330    3.24782052704685
O           0.99961595836683   -1.75278276537394    0.79540450352452
H           1.71768261289423   -2.18116944326053    1.26345025826603
O           0.17165642824456    1.37533030309911   -1.69689347989954
H          -0.46097177937939    1.38699296762226   -0.94669963729803
H           0.97717040034617    1.81523429576711   -1.33896964249782
O          -1.82090299483930   -1.42119523425094    0.66217954951047
H          -1.69925170482843   -0.44876252536618    0.66805448527222
H          -0.96198633830023   -1.77633705618957    0.92423842662509
O           2.12173923088763    2.36447902411706   -0.18140462505383
H           2.03112704521287    1.65501121683771    0.47627881495347
H           1.64894262856153    3.09665612387002    0.23648187013654
O          -1.92994387997331   -2.18709403408236   -1.84830328266119
H          -2.25512366810181   -3.08772103868283   -1.86373729528920
H          -2.05259308035002   -1.86331006392557   -0.91564495432443
N           0.53885071736129   -1.18212664979672   -1.82289985610523
H          -0.40272142159271   -1.61488496954998   -1.99527608007035
H           1.21299523137582   -1.47097346122502   -2.52246651494798
H           0.40815841590826   -0.09803268480924   -1.83292901425898
H           0.83864282628024   -1.45796183606632   -0.86413697018330
