    26
        -50.46715308  Gyration_radius:  2.58373256228 Dipole_moment: 2.430
 S          -1.62887989374063   -0.17923630191994    1.34687726146608
O          -1.62682024870859   -1.19901636964154    0.29968105799526
O          -2.83143031316029    0.59907674877145    1.42467370952178
O          -1.52579088015414   -0.97619779317724    2.72297387580045
O          -0.40475296313278    0.61460069476396    1.26674574522415
H          -2.89306226302726    1.19186435549768   -0.50173005516761
H          -2.28440930202181   -0.66332469190689    3.20531141104474
O          -2.50896348296114    0.76830977713437   -1.27954335332606
H          -2.25193776498123   -0.10553612018455   -0.94191460918520
O           3.34923486047941    0.86569031110258    0.34329904407133
H           3.52752087825792    1.64735912110469    0.86767003041076
H           2.95890674941182    0.20279313347320    0.96502572222031
O           1.85112439373154   -0.81008035225638    1.77685327528391
H           1.64166462701558   -1.53108738221065    1.16714522018257
H           1.03178936112411   -0.28601623974641    1.83146204034847
O          -0.50561926845942    1.70289798889993   -2.77478605276306
H          -1.30250774240478    1.47961246793881   -2.24120811384512
H          -0.72984703213664    1.49942453481089   -3.68375979486115
O           0.66670497669465   -2.18843541885051   -0.40297397540411
H           0.54834622164566   -3.09487204048089   -0.68914733253847
H          -0.22449392054000   -1.87759396846233   -0.09930165996881
N           1.03958999906391    0.47658873767325   -0.95008620784693
H           0.42105149176050    0.63841174259369   -0.11234244617626
H           2.00000616264343    0.78760475325272   -0.68216826397998
H           1.05012682862974   -0.54335089181760   -1.09444574549764
H           0.63244854510102    0.98051320347048   -1.76431078294018
