    26
        -50.47297970  Gyration_radius:  2.50393781485 Dipole_moment: 2.738
 S           0.51440906792578   -0.29706711666288   -0.92434935038273
O           0.50734508437913    1.17057215633899   -0.93213553533447
O          -0.82972039527433   -0.82205031743102   -1.11033962411409
O           1.34742803476049   -0.79828272787392   -2.12157667383097
O           1.11899655350201   -0.80216300966265    0.30760222011901
H           0.13533905893306   -0.53311951701503    1.66995945014971
H           2.29401376612335   -0.50800338515842   -1.99268512234874
O          -0.63448937452847   -0.31206933838966    2.23781040195704
H          -1.29047620568289   -0.99988986816477    2.01598305734274
O           2.81141622584398    1.22917059000216    0.46376684906248
H           2.32843566143916    0.41624704895039    0.70417626347405
H           2.15333181713961    1.72385177688227   -0.04471180497909
O          -3.24907362554246    0.25223648072838   -0.64632882374736
H          -3.55418585259701   -0.47289391624093   -0.09024113226291
H          -2.47611123398301   -0.11293843149302   -1.11843097474926
O           3.78813884353260   -0.09064807764431   -1.59566716920096
H           3.61339911530244    0.50474032739159   -0.82306570261591
H           4.26229293424435   -0.85055937515503   -1.25134259810262
O          -2.13725779042837   -2.06859492967235    0.81883030199015
H          -1.61288101617273   -1.70177367471589    0.07041697300545
H          -1.93462433587284   -3.00432890270462    0.85041289413307
N          -1.44572604203975    1.65121451241207    0.71684454352274
H          -1.58629323683040    2.59213403840495    1.06766061478149
H          -2.30225594864199    1.26791854893194    0.23596515611616
H          -0.65663505124073    1.60650724910873    0.00502849757701
H          -1.16481605434126    0.95978984872945    1.48641727844738
