    26
        -50.46424002  Gyration_radius:  2.42258127352 Dipole_moment: 6.757
 S          -1.33290936740158   -1.74435134475860   -0.87674561711802
O          -1.89548693460314   -0.95597540484589    0.22980033571998
O          -2.24101491276950   -2.03480755932731   -1.92563596266227
O          -0.08649302138735   -1.10014174975161   -1.33095326060243
O          -0.85341011870063   -3.10047714874391   -0.21007883226104
H          -0.28756222762452   -2.80555419095586    0.50457778497852
H          -0.18368009548284    0.39350845693791   -1.83106671502306
O          -0.14139945112994    1.36282630952762   -2.06232759928985
H          -0.27107110466776    1.41020833553475   -3.01028153339336
O           0.19554752366205    1.57846853749904    1.85946475473196
H          -0.64437350214355    1.76084949105887    1.36143742179017
H           0.16711629640073    0.62644925628295    2.05523521127733
O          -1.82247294640350    1.71973764848098    0.17817416426676
H          -2.05064173107273    0.77024644515803    0.20585101919301
H          -1.41022348334475    1.85142769099236   -0.68641181033130
O          -0.01921034707066   -1.22684201948074    1.89668974681830
H          -0.79157413508071   -1.07042809298450    1.27117171443532
H          -0.40419705370566   -1.54408938177357    2.71574285674916
O           2.10477965446027   -1.05773394913291    0.07054430969785
H           1.70882425285846   -1.21521368219853    0.93768587154897
H           1.36267119285162   -1.20906448961127   -0.56361313503595
N           1.80696610404505    1.54432976992979   -0.17133247140016
H           1.20171906949255    1.69191327195026    0.71434499220231
H           2.11342053742506    0.52487341759240   -0.12371412750917
H           1.18239940668266    1.64682478501380   -0.99490344641167
H           2.59227642474915    2.18301559758112   -0.21365563242852
