    26
        -50.45052629  Gyration_radius:  2.44741179774 Dipole_moment: 2.534
 S           0.91930718627433   -1.15807055481369    0.56732211484196
O           0.97393588718663   -1.07530809244317   -0.87145368971217
O           0.07242562028676   -2.17355042010710    1.10043455454691
O           2.32812723833670   -1.31535470819458    1.14479411207625
O           0.47182460336180    0.21674833363469    1.11851416465770
H          -0.01825594034665    0.82676442823870    0.39719960986956
H           2.83979482992589   -0.49052677089099    0.86438663214439
O          -0.82673556275938    1.61419785622697   -0.47276558204770
H          -1.56207866834036    1.85908662496639    0.09736870026161
O           1.79512130889695    1.34480438711321   -1.59097578543851
H           1.48544986343344    0.41882513099342   -1.53534989683490
H           1.02912722366591    1.88402510555514   -1.36660268392823
O          -2.07112546541379    0.61623622697445    2.19861579322659
H          -1.12270353889309    0.44644104599502    2.09538183166059
H          -2.28657838337312    0.44571534112670    3.11702207391087
O           3.52118727929514    0.78457685992820    0.30703369500490
H           2.92077189150784    1.13588901918594   -0.40253344440289
H           4.34934126712838    0.56495772065339   -0.12563269217671
O          -2.54418722585303   -1.57612969463687    0.48559142943313
H          -1.70130815351683   -1.99781086644249    0.71668408500173
H          -2.62627674998244   -0.82009234912647    1.08580463143046
N          -1.64038435912305   -0.35435696204089   -1.87293239332848
H          -2.18640139223318   -0.88224680515571   -1.18405098989420
H          -0.77312197892613   -0.86430873578046   -2.00740195632410
H          -2.14758968793087   -0.32362808358789   -2.74689907309812
H          -1.19966708258301    0.87311593226503   -1.11955524090831
