    26
        -50.47723502  Gyration_radius:  2.39974495839 Dipole_moment: 3.763
 S           0.11796573128065   -0.09992441555284    1.72490005269266
O           1.18567016125345    0.47679385990601    0.89637744097970
O          -0.74553703029863    0.90952340607973    2.27950271004208
O          -0.61237521928131   -1.11541560820367    0.97418650781177
O           0.83154915831965   -0.83028870843358    2.91504045928835
H           1.47439622461030   -1.39832940220927    2.46811137715525
H          -1.44593238949283    1.78880506125820    1.12364528805058
O          -1.86353322689277    2.26531993024333    0.36109678665831
H          -2.39350336054107    2.96377463319085    0.74896492440504
O           0.45294723141385    2.02424002952912   -1.11763413469035
H           0.87226887897422    1.55441653591505   -0.36516706803905
H          -0.37759371246614    2.36282147882420   -0.74380305082426
O           0.79823718594655   -2.15555637219520   -0.99438940113071
H           0.21409938368087   -1.92224246385434   -0.23860159826257
H           1.68029845101546   -2.19097478732123   -0.60639901057478
O           2.69274614610265   -1.59029609746124    1.03900742288588
H           2.23859679956724   -0.72817822628112    0.87191430644614
H           3.60457032421674   -1.38409364850808    1.25257571940081
O          -2.44807047366172   -0.19230104180934   -0.72723941882619
H          -1.94670237880571   -0.65849486745635   -0.02655954786309
H          -2.48739437200160    0.73026083905935   -0.42223091623002
N          -0.36132890834451   -0.16487972408901   -2.32132765034568
H           0.05515362917290    0.75685467938940   -1.98447413065886
H          -0.44534061716565   -0.20792341145956   -3.33008376284191
H           0.21733752102218   -0.96102028653423   -1.94440269664908
H          -1.30852514771855   -0.23289140180802   -1.83301062931365
