    26
        -50.46572236  Gyration_radius:  2.46794375041 Dipole_moment: 3.854
 S          -1.16057919619561   -1.09354818196908    1.42063893072868
O          -1.46903495360558   -1.39075010409264    0.02209685940213
O           0.13553599669677   -1.56647679807378    1.81983406354149
O          -1.37643205375301    0.32062761562771    1.71799513320680
O          -2.23098833869501   -1.87835705620218    2.28281377586990
H          -3.03452281687451   -1.40148163186536    2.10249289822761
H           0.18075074271450    0.88456275648514    1.79041411132195
O           1.13700203787555    1.08719124643852    1.68810563782132
H           1.59330940042959    0.33878969455744    2.08587187651017
O           2.45744940281841   -1.40813274901072    0.42913513220357
H           2.35460231966688   -2.04122204545316   -0.28445084232080
H           1.68379898762290   -1.55566034371013    1.00060852756613
O          -2.21382913525577    1.06078493428370   -0.67690179714738
H          -2.01551098893182    1.16976354530986    0.26987856116408
H          -2.09960026469303    0.10099759990107   -0.78086900780880
O          -0.35948333807701    2.42694636916911   -1.95588532870163
H          -1.11880486489705    1.92180398083070   -1.56109571059336
H          -0.48587233808824    3.33809435765648   -1.68748496204119
O           0.50766257458670   -1.51658504258459   -1.66558287841257
H          -0.20681512230807   -1.57721790990087   -0.98414081773797
H           0.05937353855422   -1.52732064492501   -2.51335274802722
N           1.54512278861608    0.87223739724109   -0.91790878149964
H           1.25239797678328   -0.09807371587302   -1.19161662264181
H           0.90705081992370    1.56388460660839   -1.38463619814464
H           1.43889044749724    0.95662638244964    0.14063960131689
H           2.51852636760807    1.01251572710770   -1.16659941381364
