    26
        -50.46187743  Gyration_radius:  2.48405205623 Dipole_moment: 8.098
 S           0.35390809240018   -1.60905057385684    0.92677153004962
O          -0.39145505054726   -0.71858964716835    1.81860103843851
O           0.52754228581149   -2.93230587898861    1.45296351879545
O          -0.53349372916862   -1.69685276795588   -0.39423158622440
O           1.57694962438754   -0.97000094859870    0.44866103845833
H           1.57194114570363    0.59575514556802    1.04846278781114
H          -1.31277132097869   -2.20185578215791   -0.09481173481094
O           1.29082541547174    1.44536446476255    1.45251399031394
H           0.60772550585962    1.16020881394457    2.06907145183776
O           1.63023973331841   -0.60057769155040   -2.11486310108253
H           2.52430249752957   -0.28425132736955   -2.25890735667268
H           1.60278110649509   -0.89903124768838   -1.17176306968444
O          -1.88408488132888    0.77500455891539    0.34211770648367
H          -1.88148006145688    1.62699350378550    0.78418721434691
H          -1.36133648440790    0.16218307168692    0.92552311138546
O           0.75688788600111    3.10034683994599   -0.51736618102774
H           1.56938527726565    3.57782364347945   -0.68858407487440
H           0.93942591400008    2.53741494946747    0.28144081933638
O          -2.10660996436930   -2.99227571797731    1.29488257322657
H          -2.30986115004532   -2.29232865353851    1.92121518030415
H          -1.19761042555555   -3.27305006209571    1.51502354842923
N          -0.40087442958164    1.09785490395315   -1.83309334856950
H          -0.94192275285801    1.25582651577892   -2.67629383236050
H           0.33865625008832    0.36038467273252   -1.99709479906745
H           0.06898659303893    1.97496768729841   -1.49589306172256
H          -1.03805707708712    0.80004153762075   -1.03853336311661
