    26
        -50.43903786  Gyration_radius:  2.52881258482 Dipole_moment: 6.779
 S           0.20941067790300   -0.49654606342730   -2.40247736928427
O          -0.19615016495446    0.86756772270963   -2.21091423061512
O           0.68933775281312   -0.88538948424803   -3.67543473691737
O           1.30594573435282   -0.80138155326026   -1.29877216087046
O          -0.90981721988333   -1.44872012993462   -1.94926295552501
H          -1.31610329376669   -1.06879057983019   -1.10008121313699
H           1.73287898564307    0.04664979409169   -1.00085122629051
O           0.15952657755738    1.13270344910514    1.55661561974261
H           0.01175395813447    1.47300837873933    2.44045219524681
O           2.39252273389242    1.18895761442934   -0.03053571306649
H           1.66062915607502    1.27639499330547    0.61035744724631
H           3.13006272206614    0.78879620200823    0.43625935915607
O           1.15442131857357   -1.54757528861427    1.37800005772945
H           0.85690890310953   -0.65346777429707    1.59606726843888
H           1.29907385246822   -1.54756496031434    0.42030787862246
O          -1.20292839571052   -2.84664613340021    1.57539716999307
H          -1.19419200377730   -3.61421639541055    1.00132991595407
H          -0.27452457991791   -2.53808616242941    1.64651492871964
O          -1.79621223807146   -0.59303250224638    0.28447793591692
H          -1.14909020352955   -0.00696533306757    0.70311807161092
H          -1.77540581510521   -1.42939390344401    0.80622305516395
N          -1.01280547509084    2.62860808349731   -0.18959013965875
H          -0.74632792775736    2.07906934623904   -1.01163020769072
H          -0.69551695617886    3.57725228000508   -0.34376069518027
H          -2.02467253518174    2.63554852163572   -0.15264124092128
H          -0.30872558371382    1.78321986820819    0.91083096565633
