    26
        -50.46923806  Gyration_radius:  2.47982588099 Dipole_moment: 2.933
 S           0.62907887713040   -2.17112229835223    0.14250362055392
O          -0.60831653587902   -2.75452547543062    0.59559359772571
O           0.71759610289296   -2.04028464353899   -1.30371012539265
O           0.96664515678939   -0.92068301613692    0.81501872512112
O           1.77946903152303   -3.18298468215140    0.57017248879121
H           1.39947369288799   -4.01403748639785    0.30597249465097
H          -0.13551361906913   -0.22801701427938    1.76625539815134
O          -0.78178343369306    0.30138787583359    2.30039631406838
H          -0.59358996566898    0.10015630049081    3.21803799892421
O          -0.40735260266530    2.53386941257251    0.85055399761555
H          -0.73667133567649    3.30569280045848    1.31237110404397
H          -0.58268734747783    1.75906844538256    1.42870633687778
O          -1.51736443240135    1.37211411215573   -1.43314302024844
H          -1.21302176069910    1.93393243076417   -0.70069277028336
H          -1.90597866660197    0.58002562479110   -0.99637363880119
O           2.00713361553949    1.40383404910392   -0.03869421451455
H           1.31016625336865    1.99283635397134    0.29019693360352
H           1.82847301285656    0.54345415643015    0.38835693386224
O          -2.22976477491609   -0.69978238551349    0.08633054316934
H          -2.13172772901805   -0.30943208927530    0.96369120333147
H          -1.74259926975124   -1.54279277882149    0.14187979561420
N           0.80160258167779    0.41419065973510   -2.17436094809500
H           0.77558348823468   -0.61014982450954   -1.89652779391878
H           1.11816870249634    0.52489326407545   -3.13027244234273
H          -0.18019023812622    0.81165030115665   -2.02394532752039
H           1.43317119625117    0.89670588748613   -1.47831718498725
