    26
        -50.46087475  Gyration_radius:  2.4525908552 Dipole_moment: 5.942
 S           1.85897937586218    0.26549212944170    1.18049061134514
O           1.24317084334109   -0.85884148064769    0.46718129780332
O           3.26971405147307    0.16095716512805    1.35638379975386
O           1.67670443058944    1.50514747317593    0.13980414894717
O           1.07411861778903    0.62970990073889    2.34109233843028
H          -0.43900306435359    0.98891146239327    2.19874818275187
H           2.60168501005379    1.71460127846983    0.08388613578488
O          -1.40783188811884    1.19969847787761    2.06493894900464
H          -1.70903065111216    1.56844483133157    2.89629979619882
O           1.03072622536756   -0.71339150308474   -2.17957427892143
H           0.93430168304890   -1.67488160433372   -2.26308116496049
H           1.30329429315774   -0.59981899158980   -1.24468804318473
O          -0.92409473062154    2.40023007401312   -0.31253567847691
H           0.04000637120441    2.33331764303759   -0.25297865005573
H          -1.24361937650491    2.12294634599469    0.56966364433742
O          -1.36952178338323   -1.16396812856503    0.67849793312352
H          -1.64620846538841   -0.47977168469156    1.30888320456678
H          -0.38429976643297   -1.12802422818723    0.70491028451685
O           0.41026208296208   -3.12566441383229   -0.97179139830712
H           0.94176631848020   -2.62449000577229   -0.33851908814148
H          -0.44777595204597   -3.22952219783768   -0.55401339870752
N          -1.38994852055952    0.14263162464368   -1.60408949592371
H          -0.44934367635854   -0.15594890691087   -2.00578131318510
H          -1.54797286248834   -0.47394229345202   -0.74980171758050
H          -1.28847623269305    1.13002481019238   -1.23058583805117
H          -2.13760232327320    0.06615221247540   -2.28334025105001
