    26
        -50.47059123  Gyration_radius:  2.47554691645 Dipole_moment: 3.227
 S          -0.35262046811659   -1.58208473149110    1.46201432691818
O          -1.49122562527541   -0.97483967770940    2.10493222825869
O          -0.67184230546046   -2.16999976482725    0.16662799527081
O           0.81248950790552   -0.70844281095426    1.38727247879192
O           0.10048149176940   -2.78494246853971    2.39390735574089
H          -0.73673125350209   -3.16705922250687    2.63408865633394
H           0.75685253571419    0.89186960325864    1.45616113148332
O           0.70919957461383    1.88191424160581    1.45259221839879
H           1.18310477878814    2.17235283780650    2.23310014639433
O           1.02277491400918    2.63246421553611   -1.10004215575520
H           1.02106324010067    2.39746430484477   -0.14716607737545
H           0.25649555808658    3.19543224796432   -1.22861679921044
O          -1.93151158058018    1.25756675624533    0.71606579669802
H          -1.95408683698202    0.47811427592044    1.30575353505353
H          -1.13105563847223    1.73131142765684    0.97781169472990
O           1.71818641458633   -1.74086974130945   -0.85367403397408
H           1.82141385002218   -1.31161264257435    0.01372020517811
H           0.87477821004238   -2.21480997759021   -0.72269392399085
O          -1.73670740900533   -0.31947809282280   -1.41725141445206
H          -1.50496610539599   -1.11258215632799   -0.89040550996061
H          -1.95620447795936    0.36117910710178   -0.74021699019865
N           0.65395807141937    0.22763903856348   -2.26560865423299
H          -0.38194514613256    0.03259450212976   -2.01426534474268
H           0.80251835478762    0.19299614152665   -3.26766894695573
H           0.90460989232276    1.16777836771847   -1.88133697783006
H           1.21097046257705   -0.53395579114725   -1.77510095066146
