    26
        -50.46279024  Gyration_radius:  2.60154401228 Dipole_moment: 2.750
 S           1.97735912836789   -0.79206436630865    1.41913168013355
O           0.88119895285107   -1.71257103764697    1.68094135830690
O           2.08718711270940   -0.44431466923703    0.01959148343832
O           1.94385141701721    0.36847390216741    2.29503951215070
O           3.31016271649977   -1.57501572767954    1.79235703063488
H           3.23512890306706   -1.62763898648894    2.73957204266216
H           0.94373912106131    1.20783793040468    1.46527973018983
O           0.30855954123361    1.77585339370845    0.94211702236995
H           0.44691980831554    2.67158710246066    1.25666600773465
O          -2.21416921899634    0.62643630910123    0.69771897477920
H          -1.39767349279667    1.06909629573530    0.97872959422370
H          -1.96180412891831   -0.30704045496928    0.56716683609053
O          -1.23149806485385   -1.88530594470435    0.23889610950102
H          -1.68692653335455   -2.66961329402804    0.54846215128832
H          -0.41805076219706   -1.80695651726554    0.81463340797029
O           0.50547719755995   -1.40466193315391   -1.81161729483079
H          -0.21471598727784   -1.74292679642014   -1.25015700532503
H           1.25009324205208   -1.25661263686075   -1.18442201039759
O          -2.54248212626236    1.53868819186081   -1.73576985364425
H          -2.56285684949088    1.26839036883356   -0.77655722260193
H          -3.11328253272954    0.92230809083852   -2.19661220751661
N           0.09546887856509    1.17381765326633   -1.71714173963879
H          -0.92386890408304    1.39406146816738   -1.86486874661010
H           0.69378838114776    1.70721416798270   -2.33754722875490
H           0.33191995636693    1.38413142408393   -0.72254400884278
H           0.25647423412893    0.11682606616947   -1.85906561332124
