    26
        -50.45147865  Gyration_radius:  2.46503189531 Dipole_moment: 6.101
 S           0.15872896929165   -1.12247998755645   -2.11264317732427
O          -0.83610330242319   -0.21493265873339   -1.58026905012400
O           0.30875862937802   -1.12439701242791   -3.52026452122935
O           1.50847509445386   -0.81716791545340   -1.40017087674009
O          -0.12426983410273   -2.53934737729132   -1.58986920279687
H          -0.06036572365891   -2.45375903336148   -0.59120528391934
H           1.64904698710092    0.16864326485044   -1.24763254046978
O           0.13575393295352   -2.22440910279350    0.95075653151059
H           0.75717175892617   -2.89300854761805    1.24408478696994
O           1.84752449008818    1.68032816383336   -0.92352738073750
H           0.90918634166480    2.03058857468674   -0.80320786215912
H           2.20562401765975    2.13179336365753   -1.68989608547192
O          -2.25550344685259   -0.75995409837475    0.64218637121790
H          -1.89631220146512   -0.57449510634570   -0.24564108064133
H          -1.70683037838318   -1.47442838412510    0.98588216369919
O          -1.47680983164617    1.49812633355103    1.77488615742981
H          -2.21438424705566    1.95735031321854    2.17829257966597
H          -1.84363049300323    0.65220813459389    1.40644675415969
O          -0.63841437187565    2.32785590698149   -0.69441120318996
H          -0.91537514404854    1.52245039727530   -1.16368005850412
H          -0.92182388825420    2.18550294745283    0.23013839367818
N           1.13699183686331    0.08717562218664    1.66799840921381
H           0.33575322223467    0.68345551316656    1.85802345105193
H           1.67669489109419    0.52956262236390    0.93304620717456
H           1.70820544819651    0.06432608746903    2.50345968063515
H           0.55190725286414   -1.32098800120687    1.18721685690219
