    26
        -50.46407111  Gyration_radius:  2.3789727258 Dipole_moment: 6.935
 S          -0.22401628954833   -1.24329046554346   -0.84936669381680
O           0.51079801533600   -0.08900854308384   -1.40813017845310
O          -1.23632809848669   -1.69464982561956   -1.78626457564615
O           0.76996709079856   -2.37726561815447   -0.59848252350194
O          -0.81876448962841   -0.84317356881305    0.43113607551792
O           2.49901478496829    0.91054999532755   -0.04761578544143
H           3.25833686134424    1.04356805489822   -0.61645742116178
H           1.77654514161867    0.55729469085712   -0.62344616110984
O          -2.59564787927489    1.18467287983626    0.20743394742802
H          -1.99417373667193    1.80221177385229    0.64801324584028
H          -2.23274151387480    0.30697438681017    0.43631717514684
O           0.01248445669738    1.63852448244876    1.17875344970676
H           0.92950822807797    1.79123108155898    0.92824434775366
H          -0.18432145533067    0.73377575434130    0.87577992737658
O           0.32419057076532   -0.82819069187139    2.89258469054212
H           0.29912824621787    0.12951718258741    2.99173268556230
H          -0.26893739072353   -1.02270357771466    2.14715817380566
O           2.30820490938416   -1.49359747349509    1.21282892463394
H           2.53943171478653   -0.60097150141653    0.88923373866175
H           1.70740639057090   -1.35461552648595    1.97927762748049
H           1.43040764454762   -2.08889408422089    0.13524326172962
N          -1.79203695059697    0.74821143398125   -2.24334287980955
H          -2.15213247814382    1.18717411067651   -3.08410141987886
H          -0.75988766038917    0.84260493689755   -2.11561631526707
H          -2.25835327052549    1.08088650506569   -1.33991187079249
H          -1.84808286192122   -0.32083638272224   -2.24100146630756
