    26
        -50.45769889  Gyration_radius:  2.43006592536 Dipole_moment: 9.892
 S          -0.27103095897756    1.25421193717678    1.69094943648882
O          -0.12281964586494    2.68038239963527    1.74080488595316
O          -1.39563624807159    0.71313734981596    2.41530511026394
O          -0.56127893207566    0.88504191736689    0.13340690675543
O           0.97264547382659    0.50926474956296    1.91307329193247
H           0.89651703807690   -0.89155632450628    1.29737622762865
H          -1.42109380099406    1.23975601825259   -0.07594736969320
O           0.89157378570561   -1.79980538906852    0.86075097960527
H           1.66562456979653   -2.24944928385895    1.20341776693639
O           2.00998298052758    2.23611314236294    0.20115027868699
H           1.35783755250508    2.86973123478177    0.53675561909719
H           1.89491136359588    1.50091268452754    0.83076454551500
O          -1.90291574772069   -1.58474961094404    1.27087623322830
H          -1.00269972168008   -1.93472709689772    1.24883593576821
H          -1.82891461619354   -0.74972743405811    1.79005982315929
O           1.48800404612264    1.21848481987248   -2.15479750318513
H           1.59463014202826    1.65988189462468   -1.26653945347439
H           2.36220385538471    1.22990496956621   -2.54796457017087
O          -2.39644728872208   -0.90600621092187   -1.19504340181283
H          -2.29033342011730   -1.12254302637391   -0.22307115848719
H          -3.07300047701411   -1.49857109577486   -1.52540170648054
N           0.23423548530247   -1.06734147193168   -1.64895129009026
H          -0.80836217862947   -0.92726649201646   -1.57237249085926
H           0.68935441364526   -0.13205142570553   -1.85677701795334
H           0.55818954185879   -1.38183275854366   -0.70262387162093
H           0.45882277765811   -1.75119549709618   -2.36403720713288
