    26
        -50.44748148  Gyration_radius:  2.53306773932 Dipole_moment: 4.472
 S           1.74524972758042   -1.19784315920102    0.52357491535089
O           0.48923278498934   -1.51992580265859   -0.11325420854757
O           2.91938506153104   -1.67402919211823   -0.11464773825853
O           1.86322094772698    0.30595536748964    0.72454557639956
O           1.68437757490475   -1.77819528338769    1.98068113345960
H           0.78601887945423   -1.70476829665247    2.32417884696611
H           0.99209231398058    0.76574629258228    1.14875042479135
O          -1.61000636617015    1.77522534045397   -0.52403062873598
H          -1.67905255874813    2.67627411446893   -0.84090795537385
O          -0.20539612959949    1.26122132777808    1.68390389536526
H          -0.63906665270714    0.42873960083101    1.98921046355845
H          -0.73568922763854    1.56187701047792    0.90711862668562
O          -1.11815999825636   -1.21056664161459    1.93628422273038
H          -0.70605176597363   -1.46050014832794    1.08596432884816
H          -2.04101968631318   -0.99415195247715    1.69956025995705
O           2.77289855091811    0.41612421287719   -1.93696771600957
H           2.95430481071189   -0.43108878817099   -1.50718943132679
H           3.06349633569202    1.08181824788046   -1.30935359813549
O          -3.23592205934718   -0.17708296446735    0.59334427072985
H          -2.77109532195493    0.58492245452721    0.20657037875022
H          -3.59787961781944   -0.67528259772556   -0.14067323250093
N          -0.14496273670659    0.37307098510550   -2.15836722039030
H          -0.48732904592574    0.11637976021083   -3.07636566902479
H           0.81659261522946    0.69186638995880   -2.27180225989119
H          -1.04586293319084    1.26406889821303   -1.20316618726844
H          -0.06937548009375   -0.47985515244986   -1.60696151233253
