    26
        -50.46564531  Gyration_radius:  2.64391085982 Dipole_moment: 3.151
 S           1.11096277422735    0.07406206981245    2.06206925817760
O           1.85701934425989   -0.70300857534469    1.10093961569581
O           0.52517498690452   -0.69645984029355    3.13375256564833
O           2.13522487108090    1.07790182639616    2.75553031554546
O           0.12179182959041    0.93389598289768    1.39225889968684
H           0.60219929087224    1.69474009543572    0.04099313947568
H           1.83758347723966    1.07847361837961    3.66026578005426
O           0.86066318267699    2.08356424975167   -0.83199653102350
H           1.21626016966927    2.95261914112231   -0.64324550784505
O          -3.01808456875284   -0.12082567620344   -1.67896742132799
H          -3.73745338608943    0.41946286072223   -1.35026642805823
H          -2.40142084852085    0.48719230235810   -2.14299146355867
O          -1.04647607767240    1.40972189911954   -2.68382655485133
H          -0.44063793913505    1.74956384546033   -1.99866438308594
H          -0.50558291714365    0.87830042430956   -3.27186547129261
O           1.40276157136923   -0.55670819849333   -1.52392402494245
H           1.42508638808027    0.40927736032728   -1.57791971996473
H           1.79766491805664   -0.74394844229451   -0.64949616469916
O          -0.13743686261361   -2.75021624620314    1.59604886837640
H           0.01903486100581   -2.08409872604985    2.29897035691517
H           0.74268564131415   -3.00663628088577    1.30819195626947
N          -0.90215143698850   -0.93114630663921   -0.20994435240909
H          -0.81585637792431   -1.79473176101902    0.37327344940390
H          -0.71119247301016   -0.13218719569415    0.43395274117458
H          -0.11695542054053   -0.91428054433241   -0.90962783562903
H          -1.82086501795926   -0.81452790263864   -0.68351105773147
