    26
        -50.47295823  Gyration_radius:  2.48745330743 Dipole_moment: 3.778
 S           0.82290600136851   -1.85132616966685    0.11921812220625
O          -0.12849781138814   -2.59574193575416    0.92248017612999
O           0.32142954791019   -1.47165560267651   -1.18224874476745
O           1.37349034974506   -0.71723337291741    0.85878061915763
O           2.03716950565444   -2.83380106642432   -0.15022415642506
H           2.18356828264665   -3.23333616625894    0.70101653459684
H           0.31374430897468    0.27114590274146    1.71754289422059
O          -0.45419371320604    0.80413182988765    2.01976235425612
H          -1.19479050811228    0.17516152077079    2.03468307146028
O           2.39254467506803    0.23359413800016   -1.38102061239242
H           2.22476752968124   -0.01582086602033   -0.45218899481501
H           1.80661340320103   -0.36456620269358   -1.86330562994793
O          -2.24960387431740   -1.19047653738900    1.38278854288739
H          -1.46081860298834   -1.77268913486343    1.22033811482406
H          -2.89727594230886   -1.74353818889626    1.82265009090499
O           1.37513248144406    2.65268819043432   -1.38838840836570
H           1.78851265920621    1.75289214293352   -1.49197836638753
H           2.01288007559409    3.17197873583072   -0.89617993111319
O          -1.98891458915783   -0.17529497467495   -1.16491041144042
H          -2.33456697702612   -0.54551292008978   -0.33470879094927
H          -1.17811674087882   -0.69761355843934   -1.34287502391252
N          -0.95973248323286    2.05611732703907   -0.23527769917790
H          -0.73539483457089    1.68681896586313    0.74070861926051
H          -1.59820092512984    2.84258704849868   -0.19529901840254
H          -0.06462807625177    2.33083472397010   -0.71724011990283
H          -1.40802375192679    1.23065619080865   -0.74412327191127
