    26
        -50.46407586  Gyration_radius:  2.48831857991 Dipole_moment: 3.386
 S           0.65763824381340   -1.36076094680513   -0.87394353600526
O          -0.43048186344376   -0.84254047983957   -1.70603922763540
O           1.61128801490676   -2.15055962141653   -1.58274944049226
O           1.43307834464354   -0.01847651474652   -0.37971788206589
O           0.15863666915354   -1.90996198863999    0.37598665597770
H          -1.50702004270325   -1.62030330530920    0.45707968803626
H           1.75696851196109    0.33760564507574   -1.23044360455503
O          -2.34057059750388   -1.11229281867596    0.34870849915944
H          -2.50285427675500   -1.12176655720232   -0.59968020214614
O          -1.07784397131640    1.77934284449781   -1.84241952141228
H          -0.94468507745322    0.81204427504820   -1.88249955203413
H          -0.55485978737012    2.14396482182570   -2.55808408731152
O           1.65231123466782    0.22492803768255   -2.99978990806055
H           0.79346669631807   -0.20888435742518   -2.85448925913166
H           2.25791117856596   -0.50011299277953   -3.18170936998572
O          -0.30223370608698    1.29082498557812    3.31817495577676
H          -0.89202824091718    0.96746118303699    4.00089743837083
H           0.34245264840451    0.56517295308712    3.14988234345344
O           1.25976816845271   -0.72153063500216    2.49915157910204
H           2.12235147881100   -0.48788681017698    2.15134990210260
H           0.83403865176559   -1.25655354313963    1.79766951324679
N          -0.87382393189035    1.06457062470412    0.73020703643156
H          -1.58068515220775    0.27555185811334    0.64859613206870
H          -1.11711677193005    1.79397402296436    0.04769617271614
H          -0.79574977063552    1.37968476662710    1.72610527788179
H           0.04004335850271    0.67650456264534    0.44006039656027
