    26
        -50.45789299  Gyration_radius:  2.64275921922 Dipole_moment: 5.609
 S           1.42125331830259    2.10454002779561    0.60384651704822
O           2.51407963783621    1.33844969239509    1.15221963078727
O           1.53882618438030    2.41045667170024   -0.80072680723719
O           0.10973456641362    1.50478589108469    0.91223165088257
O           1.39378853725204    3.49268739887538    1.39044091221521
H           2.24554347326977    3.86503299977550    1.18424803423014
H          -0.21863257923449    0.15022824290662    1.70216360465581
O          -0.47727913840556   -0.71461504088983    2.11480621454176
H          -0.89194525455492   -0.48859654497254    2.94860803425703
O          -1.71383270746459   -2.03918551732422    0.13890585615514
H          -2.10683543218631   -2.81094958701323    0.54869551993374
H          -1.28687910706073   -1.52861328000149    0.86583006390540
O          -2.80280751745185   -0.42179625110193   -1.83546210759362
H          -3.03322764110172   -1.00749330047018   -2.55813666308430
H          -2.52791603164620   -0.99169668936296   -1.09428563873274
O           0.63914944297653   -1.71306429754739   -1.36800627238196
H          -0.13944412300979   -2.10736869842684   -0.94740361393039
H           1.29872490777498   -1.60867341749437   -0.63661360658175
O           2.02315443949457   -1.25588959819389    0.83018609932730
H           1.32996852945547   -1.33076333828606    1.49693856914114
H           2.35062760922039   -0.33605471607723    0.91204111594248
N          -0.34976127609095    0.70782104735003   -1.54124841776051
H           0.19867072441924    1.41090876956788   -2.03833510096188
H          -0.32392982638668    1.02717480190898   -0.53747919147747
H          -1.32484253203030    0.59159066141620   -1.86316366216960
H           0.13381177582086   -0.24891591760997   -1.58030075110398
