    26
        -50.46111250  Gyration_radius:  2.51924144479 Dipole_moment: 4.817
 S           1.13396839346329   -1.65017347562286    0.46960769706654
O           0.06480252626564   -2.11082265467098   -0.41015077603245
O           2.40838329582787   -1.52680218123742   -0.15937602401164
O           0.69650624760116   -0.38433209227059    1.12327811026040
O           1.25645146780714   -2.69960356750315    1.62889270830057
H           0.41719135344669   -2.63320238745798    2.10810281053196
H          -0.80044768809403    0.22666592974948    0.82163505899071
O          -1.71537952489935    0.56868664662862    0.67178333247512
H          -2.24342963675961    0.19764233287997    1.38201781941206
O           2.11325172025644    1.12836787106103   -0.57848632270288
H           2.76641632867504    0.44920975649840   -0.78217827345443
H           1.59750587138417    0.71336893863587    0.13535323445987
O          -0.76136832298901   -1.48928071580154    3.00034701040539
H          -0.21999456474809   -0.91822469948063    2.41674409036840
H          -0.43962537717019   -1.35369627066397    3.89364072955104
O           0.32298733364883    1.56888052301133   -2.50660259450725
H          -0.12003630935078    2.28293872472944   -2.00637243109764
H           1.12773075108767    1.39301844535749   -1.96718961901856
O          -0.62294711134247    2.93774605591033   -0.38211447970705
H           0.24628132130128    2.95176047547687    0.02764368662200
H          -1.12904442782189    2.25282935334875    0.07918954606193
N          -1.24001023354377   -0.38743209225409   -1.81932842679622
H          -0.58133400547148    0.37723278396795   -2.21462167861096
H          -0.65613772046611   -1.15234941903159   -1.34879343703245
H          -1.78085991474518    0.03560742700584   -1.04693679996197
H          -1.84086176331839   -0.77803568829616   -2.53608494157098
