    26
        -50.46541957  Gyration_radius:  2.47094735656 Dipole_moment: 3.824
 S           1.10603550572595    1.22751698957992    1.22886354904729
O           0.11432549131376    1.83324517323351    0.37184307482358
O           2.41063507833198    1.81892033699829    1.16963397554309
O           0.59897670762869    1.45906797522869    2.74607735224788
O           1.09250071391634   -0.23755745848693    1.09044227324220
H          -0.36584627196459   -0.47197528552406    1.90210222633525
H           1.20491407276746    2.11785593213091    3.07133586217790
O          -1.26268311072261   -0.64896005013808    2.25568322337832
H          -1.30712799856748   -0.14175369263804    3.06836273464318
O           2.36843798745328    0.42075874391582   -1.18380602881985
H           2.73476970772727    1.24089786955016   -0.83521400551721
H           1.98152754752016    0.00142922553477   -0.39917851261458
O          -2.25364960023830    0.76572731264266    0.15749146673597
H          -1.44708347799656    1.33366816575754    0.18387615269517
H          -2.16938600116223    0.22176880209459    0.96463560676181
O           0.54277962020784    0.18713298467083   -3.09541635398875
H           1.19717934214838    0.41803617567219   -2.39466634040783
H           1.03008633492998   -0.33228130856856   -3.73742281894727
O          -0.19358390464468   -2.43773933461382    0.17493792062272
H           0.46403202248497   -1.77080397447217    0.44490455320234
H          -0.78541114211708   -2.50378579858629    0.93168111370223
N          -1.42363125511307   -0.91319821552527   -1.64534404235089
H          -2.14857201650408   -1.33989599298733   -2.21121164758363
H          -0.69958185561981   -0.45489612207004   -2.25446913178269
H          -1.84083133226401   -0.17047939843823   -0.97679050885541
H          -0.94881218520307   -1.62269907497381   -1.02835169432642
