    26
        -50.46336361  Gyration_radius:  2.49325649295 Dipole_moment: 7.917
 S          -1.29354770991364    1.27918783290218   -1.01656493324197
O          -0.07414488985595    2.07498320762101   -1.13328174545011
O          -1.22764153540297    0.00499370941814   -1.67175204803201
O          -1.69597585047806    1.18669174855753    0.39044347516598
O          -2.42467720544527    2.11666558017990   -1.73430489827067
H          -2.31513896528399    2.97544774398979   -1.34082017430064
H          -0.62463214252854    0.79009653801938    1.50432573849253
O           0.08492859168285    0.53433341117970    2.15327851529751
H          -0.26692555155384    0.73395679589417    3.02220699558935
O           0.66010573733772   -1.91531051025787   -1.33160645206627
H           0.01360917054896   -1.25608769445361   -1.63591895924817
H           0.36367903904195   -2.15672729974373   -0.42547406707224
O           2.95966992703559   -0.92107693390756   -0.77166002007444
H           2.10467691534022   -1.32773964115827   -1.12150540560795
H           3.33314836556535   -1.58590924758720   -0.19015591555314
O          -0.23332389830689   -2.12533272960657    1.19701871771986
H          -0.00606145962799   -1.30476469829106    1.65443409581201
H          -1.18269040807529   -2.03383268400303    0.97373921409563
O          -2.66747561251291   -1.33216287117459    0.29639153171465
H          -2.54723299692475   -1.47033613923904   -0.64835678141596
H          -2.46667654165885   -0.38910047643351    0.42322467657789
N           1.92177500515073    1.23196463316660    0.29239065262754
H           1.15826700207374    1.58251456297491   -0.37079013384578
H           1.43255739209218    0.96864564737641    1.16659902700331
H           2.39398534296778    0.37050635898161   -0.13858282119678
H           2.59974228944934    1.96839317541514    0.45672172490736
