    26
        -50.46596411  Gyration_radius:  2.62225630566 Dipole_moment: 1.067
 S           0.39046668609983   -1.89380690931099   -0.25378153819790
O           1.29751792266778   -0.83853531355992   -0.67285672649437
O           0.18566613792325   -1.94113337976729    1.17515530011659
O          -0.86873702701486   -1.83459178607060   -0.99106191010754
O           1.09747206776667   -3.25353843351737   -0.66059492921889
H           1.52629062903707   -3.03898869480393   -1.48402275060489
H          -1.83848935179952   -0.94513799254620    0.11409764316880
O          -2.05980157524838   -0.34872962737811    0.85733900649602
H          -1.74494018306505   -0.82520407391160    1.63161920816523
O           1.47763386984337    2.08029042583834    2.22274163245926
H           1.60236748878789    1.14013071759764    2.48891721211690
H           2.35335865532680    2.40822453306998    2.01198183435936
O           1.79359051254341   -0.52506595230945    2.71686091211405
H           1.63939909465819   -0.91367855486956    3.57963237794016
H           1.25879506630586   -1.05747328927447    2.08643648301696
O          -0.98341131935911    2.43941348497424   -2.12320504087244
H          -1.89342662838144    2.74003255335118   -2.14352752693571
H          -0.97531201237135    1.55605260019708   -2.55094425915471
O          -1.16491345632422   -0.11005385257550   -2.97989430893663
H          -0.97874824903213   -0.74167688147211   -2.25166033395217
H          -1.93461405143133   -0.45898233879977   -3.43247286151147
N          -0.03677689140237    1.29632091912599    0.13575170843906
H          -0.31243976893900    1.92360246277698   -0.64832334766924
H           0.47429503007027    1.78463677123761    0.90365160130548
H          -0.88948937221813    0.82048045485299    0.50958041334748
H           0.58424671537257    0.53741214884031   -0.24141980932414
