    26
        -50.46596408  Gyration_radius:  2.62205096606 Dipole_moment: 1.043
 S          -0.66486560714313    0.20679447657450   -1.82057312007564
O          -0.87799511522090   -0.99817065755265   -1.03666884876766
O          -1.30201706900340    1.37607322624756   -1.26138925306722
O           0.75504815015496    0.42383648238370   -2.08430841322694
O          -1.35573644559588   -0.06554654802107   -3.22156904056350
H          -1.18875474083112   -0.99171137981369   -3.37105495016698
H           1.14715462435295    1.51654587554165   -0.81737350594731
O           1.06838466004486    1.98938473147862    0.03550079525259
H           0.26804273925220    2.51308890677959   -0.06877067690968
O          -3.05471810277502    1.03797080583344    0.68355727100973
H          -3.50615404210596    1.88365208537453    0.69665431039503
H          -2.42346758261161    1.08571121530230   -0.06879848061891
O           2.59311459989017   -1.72725089796000    1.31070147724117
H           2.58923629411983   -1.75402993792141    0.32967066875363
H           3.39740733175373   -1.27138140174793    1.56415972922999
O           2.53259049288526   -1.40380076869863   -1.36490728427907
H           1.82110383727746   -0.78038356834566   -1.62781589131492
H           3.29701486550866   -1.15803329333635   -1.88851982560261
O          -1.85251967075101    0.00296876590599    2.83221499768153
H          -2.34343825609418    0.43308081427492    2.09448950440374
H          -2.34348678390716   -0.79359414936070    3.04026878714181
N           0.29337266847879   -0.30980156025530    1.23215662088070
H           1.10959384838435   -0.91234184686169    1.46734895246633
H          -0.40689313489904   -0.23227476560090    2.00218178448499
H           0.63699782714162    0.63796214623718    0.95435199590525
H          -0.18901540830329   -0.70874871645836    0.38849240571335
