    26
        -50.43684204  Gyration_radius:  2.58183525715 Dipole_moment: 8.351
 S          -0.68275747542753   -0.55557159626898    2.60858035382769
O          -0.79882925352949   -1.36918370238720    1.42906628236377
O          -0.53661171134206   -1.22530864415026    3.85055451444933
O           0.54283792358984    0.41314515236030    2.37313054711770
O          -1.84123888352550    0.45332127216886    2.67286305952791
H          -1.85301216446108    0.84647744284743    1.74590922016406
H           1.20930927465184   -0.03099307798213    1.78613001795690
O           2.28881488004116   -0.57881508835670    0.69010550714872
H           2.87696687382489   -1.19935498476612    1.12196309961255
O           1.16406375934142    1.76638487397415   -0.21823500207796
H           1.25907633064050    2.40734805761841    0.48964298827099
H           1.69322881488351    0.99653764280444    0.04714835626182
O          -1.59064578873836    1.30421847512813    0.27422213000512
H          -0.63689247788448    1.42912583240125    0.14030998124803
H          -1.85506679851882    0.59725253112993   -0.34902878109932
O           0.27980461390335    0.87905011515826   -2.71458636028626
H           0.50562852220820    1.51670583534770   -3.39315376379135
H           0.61100732036508    1.23887298410445   -1.87615623449541
O          -2.07821194948912   -0.27104922459118   -1.88800582573441
H          -1.29300072848240    0.10484015121271   -2.32338214032093
H          -2.84540242499790    0.03784536420447   -2.37176089125021
N           0.69480984241144   -1.81432093510099   -0.92019926222104
H           0.43365280222759   -1.26465748130855   -1.72955197161406
H           0.81799863393982   -2.77361558441201   -1.21578685192273
H           1.71567713788745   -1.12113279921356    0.02812799310707
H          -0.08120704352532   -1.78712261191246   -0.25790696624132
