    26
        -50.45366029  Gyration_radius:  2.473236814 Dipole_moment: 7.160
 S          -0.67253532873494   -0.32580907726412   -2.09863176562726
O          -0.41201582404777   -0.97108770187252   -0.77471176353850
O          -1.32018029301160   -1.21000421092002   -3.00703830472893
O          -1.61678519134582    0.89699871400886   -1.77392150710998
O           0.56692208383821    0.29293132008569   -2.54962701694666
H           0.60454354177525    1.42307194369935   -1.45684319114784
H          -2.32181756118824    0.53165350826081   -1.19144840887500
O           0.73415561383090    2.03851822795268   -0.67973205223862
H           0.56209721873411    2.91588770284909   -1.02518929477606
O          -0.32010205439712   -1.19819052253889    1.92626262317139
H          -0.43283713584078   -1.30348497516787    0.96501198133608
H          -0.55036741750937   -0.27393139690438    2.09014671598107
O          -2.97959277392287   -0.21433670128781    0.15657443348265
H          -2.55781433533595   -1.06857750211207    0.02182699649442
H          -2.39535751422949    0.28365425812618    0.75591726008533
O          -1.03448671763810    1.42402184817783    1.32425989629369
H          -0.43858166195684    1.60232059010101    0.56531388359281
H          -1.43376523206192    2.26295240597531    1.55923902256265
O           2.28847646161479   -1.50295698135999    2.11098333472395
H           1.30340643014395   -1.41450732627787    2.20757506233884
H           2.48657429711821   -2.43017034331756    2.24921852421749
N           2.02550920512422   -0.35459349390869   -0.26913345932710
H           1.00856001415436   -0.67439037599412   -0.50812439595581
H           2.32063626775582   -0.80886563555797    0.63399964857070
H           2.62181804108539   -0.58622507801046   -1.05743327560385
H           1.96353985603711    0.66512081325493   -0.17449495698008
