    26
        -50.45955816  Gyration_radius:  2.46003580114 Dipole_moment: 7.205
 S           0.96423378445646   -1.53573198227630   -0.88044297227618
O          -0.19176981277972   -1.67516243103828    0.03441901946925
O           1.56870712697547   -2.77523315030593   -1.22508677913035
O           0.39033279213448   -0.82901586531901   -2.16944610762933
O           1.88776826958035   -0.53454667771288   -0.32533833490147
H           1.12001577658916    0.80064026408545   -0.65050862499673
H          -0.51152480033358   -1.21532203740203   -2.27494143770168
O           0.63776547225905    1.64615382869939   -0.86154908091150
H           1.07116329762667    1.98285012937090   -1.64740882769450
O           2.56197876189014   -0.18122239199118    2.17835610432920
H           3.15878003074651    0.56867128385879    2.19854571884973
H           2.45768033815530   -0.41876361093014    1.22641812812488
O          -2.06762001827583   -1.62601107728295   -1.82623145242594
H          -1.63831375762241   -1.95348787488794   -1.01780262573490
H          -2.35127505158004   -0.72340728882265   -1.60541756414245
O          -2.02211168219390    1.10336681349954   -1.23907071204814
H          -2.31840641828865    1.56562722341596   -2.02471390745240
H          -1.04311232839992    1.15992314992097   -1.23758287043890
O          -1.07161873043972    2.03523598381757    1.24660274035834
H          -0.32839062037033    2.20088761057321    0.64397203404772
H          -1.79709407039509    1.78239254669489    0.65817406988889
N          -0.10723994028809   -0.27082685008899    2.18922888708171
H          -0.53437592654477    0.66209531988345    1.94904104643723
H          -0.16542099245421   -0.89250390438299    1.30748543196491
H           0.91498061431581   -0.16190591324627    2.38791212750025
H          -0.58513211476551   -0.71470311813029    2.96538597943659
