    26
        -50.46182917  Gyration_radius:  2.47543921353 Dipole_moment: 4.431
 S           0.50360626787118   -1.85169905610092    1.44008508142664
O           1.51372262274066   -1.99290130387276    0.41168839292629
O           0.53951271911425   -2.79464997897256    2.51012126811394
O           0.82671023781033   -0.42835089039765    2.15923454620024
O          -0.81816664196100   -1.64285515682253    0.83905928064468
H          -1.75655984097740   -0.36323041993956    0.77495932337659
H           1.01959996920767   -0.78695293853734    3.01815604767827
O          -2.34493403420239    0.42623477232806    0.62880499927511
H          -3.21464908727753    0.16031700779419    0.93013497246423
O           2.39897104502426    0.12548776364630   -0.82129028027785
H           2.04848009570635   -0.65377376818557   -0.32774878963943
H           3.33646868960839    0.15502213173550   -0.62854790783156
O          -0.21076305286837    2.06205286947621    1.42113300002983
H          -1.09954057672673    1.71590863471641    1.25670117154381
H           0.29034022264495    1.30653108144644    1.75936506116067
O           0.79020500129933    2.25848798059048   -1.04798962735255
H           1.49392766267130    1.57855495000004   -1.00571325951764
H           0.50446128747830    2.38850367891276   -0.11493081233861
O          -0.26060852284718   -1.72074306956999   -1.72819650751244
H           0.69430180028104   -1.84152297903887   -1.72132117898358
H          -0.51681010012965   -1.83529758957664   -0.78507522835023
N          -1.16631720736347    0.75471169870501   -1.81732707554612
H          -0.76268842103394   -0.22452271895600   -1.91612807090859
H          -0.35042703637521    1.43996833247187   -1.58844357042228
H          -1.66483569354372    1.03222070952220   -2.65475484425111
H          -1.79400742615798    0.73249824862148   -0.99197596191301
