    26
        -50.46890359  Gyration_radius:  2.55287692818 Dipole_moment: 3.427
 S          -0.56299126407456   -1.01076350090788    1.95913587902967
O          -1.49193005763472   -0.12578467668602    1.25720904641121
O           0.03362428399292   -1.99206253802282    1.07972201102862
O           0.40145522852863   -0.25706050683261    2.73855072612440
O          -1.43540054797337   -1.82422263885596    3.00118285272381
H          -1.62685049493482   -1.16208928285462    3.65669042357245
H           1.44923892869125    0.50024775752636    1.80899274515977
O           2.03531449033910    0.98225745668031    1.16656050968775
H           2.71311345579347    1.40630501156026    1.69526407694302
O           2.03173044499769   -1.20624759423576   -0.52146959617155
H           1.42414028750514   -1.68054755058015    0.08066163103138
H           2.30424674007992   -0.42326970252553   -0.01502358320048
O          -0.25813091824924    1.78673513529111   -0.08863389441387
H          -0.82625425101400    1.21793361181732    0.47623908038378
H           0.62151418347776    1.74470469514098    0.32594566138446
O          -0.47427364364731    2.41391225732087   -2.87997570768084
H          -0.84754197951062    3.21255880597718   -3.25367165003458
H          -0.48751043364146    2.52700356599674   -1.91984928022556
O          -1.83928079722983   -1.74170758804761   -0.80621926891196
H          -2.02905708050094   -1.07515989705751   -0.11769449263597
H          -1.23695883584600   -2.34059301392269   -0.33990227473497
N           0.02395289847644   -0.19787834768603   -1.89686308802834
H           0.04485506047796    0.09924147347287   -2.86801414482829
H          -0.77564627602089   -0.85419330868685   -1.68106045896951
H           0.92201223680690   -0.65108785322810   -1.56490895052843
H          -0.11337165889513    0.65176825933344   -1.29286823309381
