    26
        -50.46482806  Gyration_radius:  2.4375565571 Dipole_moment: 7.000
 S          -0.24115385028965    1.08845765758186   -1.79709277887004
O          -0.78991955874048    1.80556433726903   -0.64709591139396
O           0.83806143359792    1.77402763630393   -2.44407984714545
O           0.11351651158330   -0.28248996949443   -1.39756558904672
O          -1.41560268174761    0.94673346765234   -2.83901724443456
H          -2.12154354627985    0.49138990328311   -2.36951776963927
H           1.07898630836084   -1.19453976861001   -0.51497004762710
O           1.55200534387914   -1.81384892035884    0.09679785601789
H           2.15842481301020   -2.30957174753398   -0.45518811757998
O           1.75895744055108    0.36542920512252    1.78032734441862
H           1.93123728216991   -0.46284624901588    1.30372251855525
H           1.98631037953240    1.07869498590194    1.14218340468972
O          -0.88605834225047   -2.35564095363041    1.20672200341940
H          -0.75800919513280   -2.89446489158973    1.98888367881526
H          -0.01384896513199   -2.29616360079585    0.76819001978944
O           2.02957757270446    2.25151073449921   -0.10750725491970
H           1.74035918719871    2.04427036063990   -1.01809678529760
H           1.49444572646187    3.00679132299228    0.14654707801736
O          -2.38567012097584   -0.81065992157691   -0.83022375240175
H          -1.42749152002592   -0.75018144150326   -1.01512263973093
H          -2.52330942132309   -1.69032772372256   -0.47034257765587
N          -0.84660704402000    0.39777014758339    1.51720988126722
H          -1.12141419668001   -0.58498040381138    1.33913412187304
H          -1.42147664745816    0.81441214470190    2.24070112983145
H           0.19656474313068    0.41408368839422    1.76563107623845
H          -0.92634165216905    0.96657998972523    0.60977021282339
