    26
        -50.45719758  Gyration_radius:  2.49331586527 Dipole_moment: 3.865
 S           1.38073278445550   -1.49631609886324   -0.79386601351070
O           0.37028445817654   -1.95290066079531   -1.74616783516358
O           1.19887259040255   -0.10176297973288   -0.47280441553191
O           1.49019132784595   -2.36287967033354    0.36324286529121
O           2.78094365335208   -1.60077298585261   -1.54760658733313
H           2.94243241546685   -2.53913546572490   -1.57146379871380
H           0.34435597510814   -1.73505908339353    1.26888156065196
O          -0.36210131357359   -1.34289912555741    1.84342920318495
H          -0.20309304721221   -1.68997828542220    2.72352384141332
O          -0.32454579901619    1.46405430709189    1.60648007557515
H           0.61452727106838    1.73097229752581    1.64343302876069
H          -0.28043915400698    0.49338276500252    1.64844909752003
O          -0.73226414897369    2.32778513018387   -0.87471941504926
H          -0.50010292133508    2.00381390676478    0.03396879069310
H          -1.36881292524178    3.03358081963010   -0.75246865568136
O           2.31205563850191    1.76129026263626    1.06269523754396
H           2.53237753156180    2.46301576649049    0.44780654943198
H           2.03974167857433    1.00478926702533    0.50251295924112
O          -2.60963682772166   -0.38811685749998    0.71149025395068
H          -2.48859548571804    0.48018387976326    1.10934220748927
H          -1.92702192374203   -0.94361188028985    1.13481637029783
N          -1.45393591108495   -0.11963138326562   -1.69087660199892
H          -2.03366635558921   -0.13926556390304   -2.52302389693435
H          -0.68138614681039   -0.85984139694925   -1.75852184339681
H          -1.02340451627103    0.82561095826793   -1.54563195675294
H          -2.01750884822015   -0.31630794276050   -0.82292102067129
