    26
        -50.47297952  Gyration_radius:  2.503912615 Dipole_moment: 2.755
 S          -0.51985485224152   -0.73950190008432   -0.62523497744415
O           0.87881674294296   -0.76598268732537   -1.06893910826868
O          -1.15725248446639    0.51467836848611   -0.99622189825434
O          -1.29585613241219   -1.85490375658904   -1.35482655726752
O          -0.60708231879645   -0.97698939489456    0.81508998184451
H          -0.01591641636141    0.33371182228577    1.72604485149255
H          -0.92739742097187   -2.73739254793461   -1.06761137953408
O           0.31319755514088    1.22372643645065    1.97787339582670
H          -0.44765897453467    1.80970942084340    1.80375773012910
O           1.47987547251552   -2.60765410318917    0.80549134246451
H           1.76860349417873   -2.12553549393563    0.01784952055206
H           0.74489373114530   -2.05748651713802    1.13580349560430
O          -1.86575690467495    2.32426760114657    0.79494501411145
H          -2.73944805478600    2.16062232543944    1.15210778730865
H          -1.70123863399620    1.60830392248475    0.13918473583784
O          -0.32836941787856   -4.07583366334024   -0.42449954322708
H          -0.92547220260810   -4.41305027656168    0.24666948847756
H           0.45768888801915   -3.71234951702228    0.05691695331422
O          -0.14198845294331    2.94421931586072   -1.53154332538427
H          -0.58111846045092    2.08008825098393   -1.65095908122835
H          -0.69148184922940    3.40487560293333   -0.88810396543464
N           1.69792423494905    1.54965424918384   -0.21376742558225
H           2.68981431908529    1.76005866420020   -0.20695857668519
H           1.14068574312224    2.25150699156387   -0.76947624635066
H           1.49670007506678    0.59829245780367   -0.64480242280073
H           1.27769231034240    1.50296443831214    0.77121019041017
