    26
        -50.46417940  Gyration_radius:  2.61677149029 Dipole_moment: 5.430
 S          -1.79612325189516   -0.44537519770673    0.18925506891496
O          -2.77961358759772    0.55254331343137   -0.14491672202941
O          -1.08670269452570   -0.99193805212936   -0.95624104559579
O          -0.84754351185816    0.04593176653328    1.20665374473090
O          -2.51607270989874   -1.67750826371451    0.85469560239160
H          -3.03229851908693   -1.26448762769877    1.57391205387462
H           0.71541877412939   -0.24550051324272    1.34889837435931
O           1.69091229684181   -0.43701294669517    1.38948986919756
H           1.90934857145013   -0.50933789616356    2.31945625802120
O           2.27091605957781    1.64123321224989   -0.46415933392823
H           1.37048669572652    2.00448266702997   -0.53140241978235
H           2.23691942535683    1.02518058076335    0.28203779716015
O          -0.41501791097019    2.11040206587225   -0.46399499311613
H          -0.57318969377394    1.46126904742054    0.24081127414426
H          -1.24665672709138    2.14455257019862   -0.94273780327922
O           2.43216555104835    0.13194288266685   -2.59066180505328
H           1.78962792945947    0.50047236435709   -3.19997557977723
H           2.50676372827129    0.79060733622826   -1.84492210196738
O          -3.44444495232146    0.26033578006698    2.41325408795001
H          -2.58525405898245    0.53321687980894    2.74838964870410
H          -3.49311429030867    0.63158864763698    1.51398076394637
N           1.39624469586670   -1.68222637842112   -0.99132437364230
H           1.55966414171214   -2.66404924292684   -1.18246334060968
H           1.85471756226725   -1.05110410978200   -1.71789592321133
H           0.34473759366416   -1.45778069821465   -0.99639508516142
H           1.73810890293768   -1.40743819756854   -0.05374404624117
