    26
        -50.45582686  Gyration_radius:  2.43325145689 Dipole_moment: 7.810
 S          -0.96002067247436   -2.12585952036558    0.09956311370253
O          -0.24317544068076   -1.65333413244723   -1.11118052506218
O          -1.02536020871285   -3.54044994595298    0.20625814770181
O          -0.44224364327972   -1.42504558661640    1.27603986042977
O          -2.42727973360727   -1.53476631868753   -0.07466599499791
H          -2.31379439803148   -0.65778885355450    0.32456958009847
H           1.04014881745145   -1.05453047247823    1.44692014753895
O           0.64470188019769    1.67171097303128    1.39272452180443
H           0.85211160167345    2.21524941101848    2.15402803325552
O           1.18009192473599    1.86243233325533   -1.33329542575108
H           1.72378367058926    1.03092001056781   -1.38019733545525
H           1.07704812039625    2.03429533885301   -0.38416295228038
O          -1.96395261202711    1.00690188396766    0.82668899537820
H          -1.01694887098988    1.13663613575599    1.04706162467568
H          -2.43196316495502    1.00532851607034    1.66328583328629
O           2.22764049919808   -0.54493772705321   -1.16263614670399
H           1.42192276582036   -1.08377266266843   -1.27441042993831
H           2.43743139294656   -0.61978133709319   -0.22033496920605
O           1.94975147644501   -0.65342327633992    1.59440574850993
H           1.16458218557200    0.83975924194840    1.48977329776099
H           2.31146634459751   -1.10336213242294    2.35885587492972
N          -1.06880067810960    0.65523473093062   -1.80869188962554
H          -0.75909900508183   -0.36610435204049   -1.56547567817217
H          -1.46112478180220    0.69651062932065   -2.74233621435221
H          -1.74604958876240    0.95561741118531   -1.10573303939362
H          -0.17086784111079    1.25255972179664   -1.71705416814295
