    26
        -50.44910318  Gyration_radius:  2.45775540485 Dipole_moment: 4.544
 S          -1.52324457371234   -1.17353693419678    0.60403455162868
O          -0.88741867416731   -0.76612529258074   -0.64114677535313
O          -2.93205955312545   -1.03302780657860    0.65141224237742
O          -1.16451486060838   -2.64287475698266    0.87886950325820
O          -0.86404427480982   -0.39482619484816    1.75349335880041
H          -0.01171730496301    0.12482354375295    1.50724683876688
H          -0.16955426595063   -2.79517770026684    0.98405798324769
O           1.21063093691122    0.96306852805287    1.23688530051722
H           1.40381668899643    1.41713095034256    2.05847445412025
O           1.76651383612493   -0.99445662357733   -0.59322726720771
H           0.79787218711838   -0.94317741767509   -0.73169232909676
H           1.95278430811720   -0.26808775552353    0.01954877979249
O          -2.33749202656524    1.56010885361547   -0.15038642002796
H          -3.09962760944551    1.21021714712581    0.31803561459365
H          -1.91040310820437    0.78487561060523   -0.53211824678306
O           0.50959744219097    0.78601933028351   -2.62809482744744
H           1.30305335406225    0.25959989616432   -2.48917273137382
H          -0.20950216867768    0.27825177992972   -2.23373859803368
O           1.36825015206173   -3.02567949342475    1.00436617340381
H           1.57413570687793   -3.86385222343101    0.58541780533310
H           1.68886759393779   -2.30977940551600    0.39297061713204
N           0.30340440500621    2.65317777531014   -0.44109617778000
H           0.45315941291682    2.22332688714991   -1.35577610196666
H          -0.70019135237166    2.64003396636342   -0.27582124073067
H           0.86154910759285    1.69583878109218    0.55691958862905
H           0.61613465068707    3.61412853484411   -0.47946208577915
