    26
        -50.45768375  Gyration_radius:  2.50007270426 Dipole_moment: 9.985
 S           0.39062159203000   -1.20733900190422    1.75669828849271
O           0.50840057528909   -1.91985868328337    0.48705094284148
O           1.63516402588322   -0.78678220680305    2.31867440236045
O          -0.51777493195188   -0.04523178909861    1.58154975592705
O          -0.34562831519435   -2.15701097295605    2.76197350337066
H          -1.13263728009649   -2.43836138276581    2.26588508371782
H           0.63868351194648    1.01458748156898    1.24013040423854
O           1.30657398688837    1.64472744904027    0.86831496045535
H           2.01001706233671    1.64534434946217    1.52129335217175
O           2.16191247347460   -0.41570024986061   -0.89673719987908
H           2.15465296805229    0.31701508673537   -0.26432137791349
H           1.64171295878160   -1.11977010280630   -0.45257545281282
O          -2.03983821636894   -2.51509611895192    0.66981088380403
H          -2.49349888225893   -1.79453422820317    0.22180955957004
H          -1.11482411072337   -2.46695310669083    0.35937969796112
O           0.92725996324767    0.47780163109068   -2.98791340050751
H           1.41162644740260   -0.00394335971881   -2.25284966568122
H           1.60417955136440    0.77659557352256   -3.59669527984639
O          -2.27812190784686    0.41924714005136   -0.17638875099514
H          -2.98981271183140    0.83984475962656    0.30990431805672
H          -1.60983011314782    0.13745585646277    0.52206860122076
N          -0.38038817470199    1.94505006654663   -1.25754443356513
H          -0.68526123738525    2.86427101992980   -1.55941389839119
H           0.09602858862178    1.40889847206617   -2.04994426966217
H           0.29962650280057    2.01616140334585   -0.47897203194555
H          -1.19884433659360    1.36358093358375   -0.91118799299111
