    26
        -50.46981671  Gyration_radius:  2.37144060304 Dipole_moment: 5.561
 S           0.57846085477216    1.48700038693034    0.53749241795615
O          -0.51505721897831    0.94097882946383    1.36128479488922
O           1.66069608793070    1.99293482139846    1.33458500940552
O           1.14273269270833    0.22440202909163   -0.26304956116510
O           0.05779858374495    2.35641663612876   -0.49657507522984
H          -2.19902868643554    1.97331337473639   -0.74756747484310
H           1.75325022152545   -0.17546667509606    0.40648781206432
O          -2.46616549298484    1.15097069034135   -0.32313642168331
H          -1.83708546099784    1.07945539687979    0.43634140200368
O          -0.02702296995344   -2.43233739584970   -0.11059468948956
H           0.91164861638676   -2.36364628234458   -0.29938500510981
H          -0.12061044670008   -2.14029362943672    0.82209372673537
O           2.49843669322412   -0.47510031282469    1.81967834939823
H           2.42385666843342    0.48993109152807    1.95337555655893
H           1.79538080568042   -0.88647474551860    2.34258047192792
O          -0.09596688656983   -1.37394934720107    2.37210907651804
H          -0.28662964262632   -0.45574851032820    2.03338316711269
H          -0.76883903169086   -1.56070288911600    3.02827087055575
O           0.37004883724354    1.09656322198930   -2.75719718337015
H           0.24993866181973    1.68158641996643   -1.96623624384156
H           1.29795864450917    0.85331231444886   -2.73879026552509
N          -1.29334798630222   -0.71627590726223   -1.76238404698508
H          -0.57670459964798   -0.10250063397888   -2.24741864736744
H          -0.80518536513406   -1.38666898370349   -1.11343618983631
H          -1.88519001193085   -0.03909692494016   -1.18733292856242
H          -1.86337356801783   -1.21860298533599   -2.43457891210814
