    26
        -50.46022008  Gyration_radius:  2.64933815039 Dipole_moment: 5.024
 S           2.46846620107006    0.38347814953610   -0.93335924996056
O           2.70762567120484    0.71486634664893    0.47289262667222
O           2.57437623313110   -0.99960255731367   -1.26783708805325
O           1.18590807716681    0.97012704375594   -1.36027996616010
O           3.59308650522851    1.17759255054329   -1.72524580786112
H           3.75598100225634    1.92422641453543   -1.15779499324772
H           0.04582721585251    1.68171712406017   -0.50457577573525
O          -0.67510276426970    2.03573517969432    0.08184333996826
H          -0.78817736230231    2.95689675741893   -0.15499191360982
O          -0.13075283953844   -1.31828355363824   -1.53551357469398
H           0.55191351867242   -1.93378779581757   -1.81970629395454
H           0.33587048954177   -0.45500460633053   -1.54217435107227
O          -0.48056251871848   -1.92087135525849    1.08348627590247
H          -1.44449718346387   -1.79955174135475    1.24000294392476
H          -0.35548857571337   -1.83206374551625    0.11401697148417
O          -2.47251214579368    0.14476685247318   -0.92734829317349
H          -1.95360359688148    0.89444970461762   -0.59295752770334
H          -1.83358763282379   -0.43218151230013   -1.36754064177098
O          -3.05967214865465   -1.25046571055393    1.25528842951438
H          -2.97203671015381   -0.67695600004998    0.45515436693958
H          -3.76491710020591   -1.86988296892736    1.06535139790550
N           0.53933649963495    0.32953899735362    1.85073886922948
H          -0.09076743019507    1.04724265380719    1.46126225266658
H           0.14093078298975   -0.65272607773678    1.59972177289981
H           1.47859737273674    0.44576561572485    1.35578053094567
H           0.64375842922783    0.43497422462770    2.85378570894019
