    26
        -50.44059821  Gyration_radius:  2.52613972127 Dipole_moment: 8.001
 S           1.34129040665358   -1.12489826082897    1.86289694573896
O           1.75833677633360    0.25571535847494    1.88497626849603
O           1.70396288571203   -1.93588884139282    2.96231305252615
O          -0.19159283638269   -1.14066015956053    1.61160045215955
O           1.87042277750424   -1.79597028511760    0.56112732879663
H           1.49737225059078   -1.34973837749280   -0.23822716053492
H          -0.53957765892056   -0.22404306470372    1.97782236258431
O           0.78496161875173   -0.87021346340531   -1.66961851842310
H           1.15273461447209   -1.46352273228142   -2.32734282479872
O          -1.36431364806929    1.05024609815629   -2.25936034203334
H          -0.51468496517644    0.59360678374277   -2.19425128380437
H          -1.25115506602303    1.76516561742361   -2.88856173442664
O          -0.79603889614882    1.12984218231716    2.42960890154784
H           0.10169194233734    1.35953734673537    2.69918803274828
H          -0.96515291383669    1.66522921094216    1.60091171170282
O           1.59132680284760    1.58613029414632   -0.43487155971308
H           1.51348127880999    0.82473224005295   -1.01992793195147
H           1.80215723151837    1.21831254871313    0.44433120020557
O          -0.91529904993596    2.38787392388472    0.14646954996696
H          -1.36959113656032    1.93332952630308   -0.57865161385822
H           0.03917139504780    2.30322375508901   -0.06421024647794
N          -1.55085373792923   -1.69547325941565   -0.90352119862837
H          -0.13585337337700   -1.24446953020663   -1.41437127641694
H          -1.95714551420235   -2.58748140613151   -1.15245530969360
H          -1.39532096599745   -1.67799268485929    0.10083698485975
H          -2.21033022798570   -0.96259283059807   -1.13671181054411
