    26
        -50.46142550  Gyration_radius:  2.55486622112 Dipole_moment: 4.352
 S          -0.19003396575255   -1.20275883861464   -2.03689707288783
O           0.45633067480455   -0.11788904546522   -2.77341727234920
O           0.34501160337712   -1.32928747224710   -0.70315849897575
O          -1.63939800896969   -1.10721127380567   -2.08166275504320
O           0.18082364686352   -2.54264483967246   -2.81055511927541
H          -0.25853422541982   -2.42798896815961   -3.64761101667575
H          -2.24055753520172   -0.31242789524405   -0.84845041645041
O          -2.60827222664644    0.19499930268997   -0.07487870831098
H          -3.48667990429265    0.47168885802273   -0.34011234280523
O           0.37254955811676    0.24274161374072    2.68190035249958
H           0.30783404350298    0.10490563291383    3.62739569583170
H          -0.16886540913581   -0.49381723725341    2.25933423996705
O          -1.08583246478739   -1.53401525800514    1.49518222662461
H          -0.51547784471807   -1.64350229765470    0.70306096702883
H          -1.85044466137339   -1.04305373955998    1.16097858508170
O          -0.65344676578859    1.89864267003017    0.71759875755600
H          -1.40858234300817    1.35426851226438    0.41542266537515
H          -0.33026954296873    1.45796258394746    1.52265425790161
O           2.71373171199497    0.32781927819920    1.29553621004694
H           1.89094873748030    0.16204392279656    1.79954134125682
H           3.27158704341507    0.86956774206178    1.85557696795279
N           1.39678732866208    1.34584113909428   -0.85355373563896
H           2.00235163932895    0.80594078932743   -0.20044764255866
H           0.54041027001978    1.64019673873901   -0.28991634956734
H           1.88919169076649    2.15531198899627   -1.21687413612672
H           1.06883692949303    0.72266608342801   -1.65664721069599
