    26
        -50.47207004  Gyration_radius:  2.39722128118 Dipole_moment: 3.399
 S           0.68018509468006   -1.48795422185334    0.73475065349230
O           0.53664057412709   -1.08230883044365   -0.66252319607469
O           0.08036869235909   -2.75209210832348    1.04814223259003
O           2.26086935129859   -1.69251588267290    0.92901776090373
O           0.30764266965672   -0.40491694485256    1.62922341119102
H           0.28424446143979    1.28167835933209    1.38456547816483
H           2.31124336903660   -2.55787211126929    1.32213510979895
O           0.37793054944606    2.14497084903072    0.92972703033366
H           1.21324669971583    2.03807751169929    0.44144331427369
O           2.35246717682936    0.85391988196786   -0.44593201089378
H           3.10489713918081    0.54617529138998    0.06221320239890
H           1.73608208480350    0.09511692422482   -0.47136049960768
O          -2.12042763647949   -1.47211007016785    2.04339118645668
H          -1.34568339373259   -0.90789750632913    2.19688490813580
H          -1.73097854285269   -2.34058048329250    1.87781110178737
O           0.53461732664988    0.83636258960408   -2.67163640753973
H           1.37273656481987    1.19221517335565   -2.35398054871268
H           0.47681714070281   -0.04149656851395   -2.26339698315893
O          -2.15024873016287   -0.72313788259708   -0.51361701467209
H          -1.25803526478924   -1.07430002629407   -0.66645933650737
H          -2.36897234053182   -0.97365417482200    0.41318413057174
N          -1.35470358833980    1.73213422535635   -0.99910153165623
H          -2.03323854248709    2.44803787878638   -1.23116404796744
H          -1.82481665862438    0.80435318118348   -0.76264742145233
H          -0.70512000163217    1.52680151204740   -1.79951393470460
H          -0.73776420500571    2.01099345336700   -0.17115657727866
