    26
        -50.44596053  Gyration_radius:  2.52142171381 Dipole_moment: 3.879
 S           0.65999010059010    1.91105060411638    1.43095338451867
O           1.69646368224901    0.91005763419348    1.55191228153638
O           0.65723825165586    2.95381789289031    2.38541343321683
O           0.71222942960956    2.52906029334932    0.01369134613030
O          -0.70402489168805    1.15701839712392    1.42326400203245
H          -0.49040219490721    0.16535683045591    1.48331810991507
H           0.44779518128033    1.84442409162722   -0.66702088877515
O          -0.15738767610864    0.83835418535378   -1.73370826715519
H          -0.20187472737500    1.26348606807945   -2.59151202506802
O           3.12643455179247   -0.44055031039691   -0.26404227620571
H           4.02804821545957   -0.52650090476933    0.04707093341801
H           2.66450133733204    0.12458137811164    0.38651133800810
O           0.08273408807596   -1.25948219651992    1.55062051339862
H           0.34609632651458   -1.45802364210343    0.60918725299191
H           0.89932547563379   -0.98694807204014    1.98471461282306
O           0.80079356350534   -1.60589874810595   -0.96404172971383
H           1.75181236242421   -1.43172846927092   -0.84866882778393
H           0.46425197165759   -0.79204954442602   -1.37890255945032
O          -1.93793104674659   -2.36602301029628   -0.27072918667712
H          -1.68529017667996   -2.34919672774132    0.65726059032780
H          -1.11289704535097   -2.45847967986044   -0.76128285976012
N          -2.51951733778262    0.39621461446899   -0.80647631848764
H          -3.37577167294689    0.66107495796560   -1.27467485003980
H          -2.52962941746681   -0.61562746957347   -0.65716321928726
H          -1.12978515943087    0.69482542252533   -1.40960372680060
H          -2.49320320142569    0.84118639495544    0.10390893631207
