    26
        -50.44603129  Gyration_radius:  2.51765985962 Dipole_moment: 7.787
 S           0.40393468068225   -1.13415643650876    2.04206218160879
O           0.36347972848467   -1.67261236308644    0.69746975385573
O           0.81009070487700   -2.03326013387907    3.05619599470231
O           1.28883789442970    0.13909006082384    2.00028552313035
O          -0.98237474798739   -0.55401074311910    2.39466773941042
H          -1.25368636726914    0.12546260509022    1.71527320310848
H           2.07825588113442   -0.13337093699994    1.39039669786668
O          -1.79113185840153    1.24097350205347    0.70449088236123
H          -2.52587617261951    1.69839986960318    1.11752770028681
O           2.96797301996697   -0.69942447708981    0.34371578660591
H           2.55673345119590   -1.56201114092827    0.23019410612882
H           2.70492080782788   -0.16152268557521   -0.46284240837887
O          -0.13930943946997   -1.22819741588626   -1.84358101320597
H           0.12511391952667   -2.03544489688426   -2.28823275109298
H          -0.00845010364857   -1.39469676196185   -0.88336363516628
O           1.90136574018503    0.65971796222724   -1.60940735176616
H           1.52496546422111    1.39592481821428   -1.08600894346197
H           1.14887447461181    0.09732566084915   -1.85556386016587
O           0.73438394871492    2.30145911228758    0.21474289711222
H           1.15835509704287    1.93876209683781    1.00038316012756
H          -0.19918826725730    2.05541436060232    0.29606522859870
N          -2.64481126761603    0.16444252068820   -1.52070940638549
H          -1.80936494964348   -0.35296611682506   -1.79458477567726
H          -3.40951904590920   -0.49423836491435   -1.44736411514835
H          -2.14323483217946    0.81911717286661   -0.15065462147254
H          -2.86033773088547    0.81982272152201   -2.26115797297001
