    26
        -50.47017087  Gyration_radius:  2.41353619487 Dipole_moment: 3.310
 S           0.58785306219248   -1.48005856325831   -0.15520507236363
O          -0.29748548229522   -2.15504693876702   -1.07078697979417
O           1.81789038092871   -2.15195387189424    0.17055182161114
O           1.03897840407761   -0.12774914970613   -0.85255146863576
O          -0.13103276686796   -1.04166926081889    1.06307879372426
O          -2.16778724930136    0.51595605701373    0.50317260403218
H          -2.85115120598269   -0.07628797132356    0.15705562616544
H          -1.45904010895246   -0.09937102817097    0.80785923618818
O           3.46912183149266   -0.18047619959769    0.53941389711778
H           2.96240447405152   -1.02693058645504    0.43449389658201
H           3.57311682786593    0.15102814519732   -0.35548860488173
O          -2.84390598847473   -1.49266004948246   -1.21620358352047
H          -1.90643500507015   -1.78937807726441   -1.15124670546066
H          -3.35801769325192   -2.29219648568606   -1.33107714081878
O          -0.21821893567946    2.54211418109389    0.41771869026776
H          -1.04716824860362    2.07448471191822    0.60404872092934
H          -0.09135027556650    2.46927825451950   -0.53293651492387
O          -1.12906470110273    0.78903945630754   -1.94201688226152
H          -1.51647931345061    0.08011554056516   -2.46364915605954
H          -1.64709095921944    0.78929660154519   -1.10214228980268
H           0.25069294206323    0.20944290615392   -1.35465749396856
N           1.40635261216266    0.88297914053371    1.79201456245954
H           0.93144092411819    1.66944255923921    1.28877479001119
H           2.32079606420525    0.61078934339478    1.32449880826232
H           1.53819259928187    1.09483035696125    2.77527504056053
H           0.76738782137444    0.03498093798077    1.65000539457929
