    26
        -50.43101867  Gyration_radius:  2.68545700321 Dipole_moment: 8.519
 S           1.00702060229195   -2.33934598098181    1.46094574288432
O           1.59538982314976   -1.15923324661144    0.86746484317823
O           1.88551786838442   -3.39150275072632    1.80735246230637
O           0.19072459265679   -1.89592980443909    2.70263000144330
O          -0.06739636558718   -2.88667008258744    0.48245285483227
H          -0.72864808387469   -2.17755820013272    0.24331605745535
H          -0.14172078164688   -0.95620430113165    2.60049923977502
O          -1.01256229292670    1.46538431113833    0.10000058210935
H          -1.35895453415677    2.34554287084060    0.23651638022640
O          -0.84520876557352    0.46478556240484    2.49624173526144
H          -0.90298093851455    0.85850135933422    1.57593291734629
H          -1.74713172320069    0.29509916634095    2.77437531070837
O          -1.13297084638623    0.83426480108767   -2.44200567045828
H          -1.63703410645579    1.49093666961565   -2.92301076410565
H          -1.12288320369614    1.12386255076401   -1.48584116593251
O           1.54321335504445    0.89198955376066   -2.78840551995323
H           0.56254883201529    0.83544695330296   -2.79317288549926
H           1.86277840581300    0.01165267373004   -2.99271435845504
O          -1.78710954526937   -1.07663017560318   -0.23034730746421
H          -1.80413977630921   -1.12207155316760   -1.19086685393445
H          -1.54497478581729   -0.14792354828690   -0.02955444413018
N           1.47866032123001    1.33194106040462   -0.09183792102865
H           1.64938609944536    0.40013595712474    0.32814392267285
H           1.70046583938100    1.27984311884123   -1.10288799681158
H           0.32990589918617    1.48401984351922    0.01681709712460
H           2.02810412080955    2.03966316145596    0.37795574045001
