    26
        -50.47460293  Gyration_radius:  2.41945571847 Dipole_moment: 1.190
 S          -0.29320271155600   -1.82621453325204    0.73834627293138
O          -1.57331906637022   -1.13205368097539    0.61111267814871
O           0.43533999782810   -1.88159020854669   -0.50554782762431
O           0.48998076136179   -1.30106298695537    1.84534098604017
O          -0.64191197483037   -3.32153413697424    1.12182346787664
H          -0.94397989814653   -3.22624822657731    2.01862156498647
H           1.89743552307723   -0.78303688398294    1.15809359477536
O           2.61173928910680   -0.54342024457681    0.52518656974506
H           2.57094899665817   -1.25071145937969   -0.12701443062434
O          -1.06160021024010    0.89376494146340    2.27752117770480
H          -1.44408297165329    0.18121733644998    1.73202454695650
H          -0.26420553068799    0.49002454150112    2.63694217332484
O          -2.06869377800778    0.60140374626326   -1.28696682470000
H          -3.01077205729520    0.57402453934650   -1.45967898397862
H          -1.89856854690997   -0.08512848134714   -0.59593590093805
O          -0.58357598197339    2.44019611248969    0.16019580577651
H          -0.74236235532018    2.03312708262103    1.04303301732349
H          -1.22529112560984    2.00305615248217   -0.42512034785204
O           0.25127477618732   -0.16446909737641   -2.53399552853155
H          -0.65383933420672    0.15329268337329   -2.37871909367091
H           0.33962314914856   -0.93590779749198   -1.93741841101041
N           1.58414928972958    1.43678881097865   -0.92517335331335
H           1.13430767335501    0.86003356631522   -1.70118135117655
H           2.24739082459577    2.10824033778890   -1.29475542736690
H           0.78230189773269    1.92808885356200   -0.41734176943124
H           2.06091339403430    0.74811902277671   -0.27939259536246
