    26
        -50.46727465  Gyration_radius:  2.5842170853 Dipole_moment: 1.442
 S          -0.92516460674433    0.95413939129459    1.65271433818595
O          -0.97352593105569   -0.49937126038453    1.78563623760211
O          -2.21243762874457    1.59349837948029    1.64858258860216
O          -0.16879211360773    1.49254352609004    2.94581080827076
O          -0.07028946736273    1.32592357377937    0.52831746856091
H           0.27456577045703   -1.39108287811943    1.30090699238147
H          -0.85971922727443    1.94633615795066    3.41730670217601
O           1.01670110733855   -1.90993743238279    0.89715085193617
H           1.01370598185959   -2.76204501212506    1.33480516747856
O           2.89837154659791    0.54370651218994   -1.83260009375814
H           2.94209936503681    0.54602034802031   -0.84440990881565
H           3.07914523290622    1.44342325350050   -2.10709198537838
O          -2.86393446259251   -0.33179402870713   -0.11533932929246
H          -2.31209616263902   -0.78439343487277    0.53929618101914
H          -2.98220823763177    0.54358550695066    0.28276287960983
O           2.50847393987972    0.50149208869285    0.80406938268736
H           1.65943249215313    0.97595848034511    0.85263728657658
H           2.28857655619751   -0.42022737467340    0.99766970045224
O          -1.91322134765353   -0.75597698738400   -2.57830400726304
H          -2.36751876232431   -0.66369854244082   -1.70989100058148
H          -2.33908155048499   -0.13293973999068   -3.16853444465509
N           0.45893811420409   -0.45615447446139   -1.35611685784302
H           0.17406605645007    0.29569260192656   -0.67495047011850
H          -0.33635248070316   -0.63742209710118   -2.00388896944822
H           1.33699903660297   -0.13469514841793   -1.81852367681062
H           0.67326680913073   -1.28258141914973   -0.77801587159764
