    26
        -50.45843912  Gyration_radius:  2.77168811839 Dipole_moment: 5.264
 S           1.73301337778276   -1.93379789065172   -0.96104712097832
O           0.45639463959970   -1.77137235404762   -1.64225742003177
O           2.40397328708760   -3.17774706783445   -1.15344000298458
O           2.69603720423168   -0.81837888123834   -1.62861180435396
O           1.62172408196282   -1.51692508330982    0.44424541133360
H          -0.01273096181340   -1.51049874970544    0.77795757288035
H           3.50143068973640   -1.32066215901205   -1.68332683354884
O          -0.95897206403172   -1.35863778843771    0.54606337655228
H          -0.97199247017737   -1.67136548549836   -0.37294180194821
O          -2.59880647788250    2.45924663968434    0.97467308270271
H          -3.33235447726790    2.77989922089634    0.44838972707946
H          -2.87691431340764    1.59219918375971    1.33495136951327
O           0.46729063302514    0.73084444655114   -2.41412416521543
H           1.41242250677693    0.88192103269693   -2.49828274740813
H           0.39476943881299   -0.24008093458340   -2.25443409502968
O           2.07912807074424    0.95813393571363    1.16392982201158
H           2.01727497106219    0.02109924309690    0.85709164498337
H           2.40011621119557    0.91894125184212    2.06572951509794
O          -3.10439069700761   -0.09380586235764    1.75011523061623
H          -2.43478607731945   -0.66194595459125    1.33196117669005
H          -3.18950126206062   -0.39783129762296    2.65476010945855
N          -0.34978315575275    1.25521531332020    0.05446666859628
H           0.53337471573363    1.40377025433020    0.58266527612258
H          -1.09222753604055    1.93174293117057    0.31055955255052
H          -0.11120941695819    1.25004314375954   -0.97144005441432
H          -0.68328092786465    0.28999292202292    0.28234650971661
