    26
        -50.45362567  Gyration_radius:  2.65788229504 Dipole_moment: 6.507
 S           0.99710191743519   -2.49872935472237    0.81057279890843
O          -0.16491261606964   -3.15527424977791    0.25826906397701
O           1.88048363415017   -3.29194430885120    1.60061873477568
O           1.88013086614683   -2.04295304463394   -0.49334970270427
O           0.65132249088088   -1.18855834813266    1.39463589752276
H           1.18176532003783    0.31992335059590    1.31611649805474
H           2.38231007625169   -2.83282113908866   -0.66627281033422
O           1.41463204700232    1.27918342938692    1.21884325691129
H           1.85071997810596    1.52239177406788    2.03681547454073
O           2.03689774604593    0.58067864549245   -1.42831958945525
H           2.02354241164612    1.00615939746669   -0.55879910385111
H           2.09733666288118   -0.36734374995477   -1.24261676296892
O          -0.81406883206668    2.47304706668940    0.24942291005951
H          -0.70621874583849    3.40967309644528    0.42010588968600
H          -0.02579780843144    2.02997221684220    0.63351924678968
O          -0.53759875625018    0.86700630281825   -2.05804615479354
H           0.44266341086002    0.77443166108915   -2.03122816376324
H          -0.72892802182261    1.62882697569695   -1.49259585868305
O          -3.13868228643094    0.97883949694372    0.57598582337331
H          -2.37019630886138    1.57600587217969    0.55115749987652
H          -3.82150230339692    1.38454414393457    0.04019198092234
N          -1.33649207992158   -0.89201557083240   -0.24537479341667
H          -2.22481442386930   -0.50761615916368    0.11275195739363
H          -1.04417678185795   -0.32332558774478   -1.09074333996709
H          -0.58922856879737   -0.81985862361807    0.49675300653450
H          -1.33628903781614   -1.91024328311660   -0.40841375939440
