    26
        -50.47017087  Gyration_radius:  2.41366067379 Dipole_moment: 3.309
 S          -0.59338726534099   -0.07706734884089    1.48400727447285
O          -0.12096506649882   -1.24275690823867    0.51632298047237
O          -0.10622550738291   -0.45985872737485    2.78279464900248
O           0.10355808552792    1.12657897855984    0.97532475813388
O          -2.02207930900220    0.04423304242903    1.33624331274457
O          -0.48258555838109    1.62320467044960   -1.53445740310389
H          -0.24273216947653    1.54866018176617   -0.58024813234190
H          -1.37850699919448    1.99018209126741   -1.51707713020949
O           2.02691509094912   -1.82955767034642    2.21483693522809
H           1.24987684567606   -1.33546917912319    2.58411584120244
H           1.64701706697178   -2.62088019343483    1.82626770074986
O           1.52240119519285   -0.27660370408997   -2.07183777175724
H           0.98212186271695    0.52671481425617   -2.12838874380988
H           0.90101952449160   -1.00799201140342   -2.13616383622258
O          -3.05933341594964    1.41572246989045   -0.66084984297319
H          -2.69798796814120    0.93347213189677    0.11886512815585
H          -3.82152078093159    1.89481743997798   -0.33483689448087
O          -1.47056328175188   -0.85419573126536   -1.66426263635767
H          -0.68131470849572   -1.17723422268832   -0.30155774557881
H          -2.39777564492104   -0.77216492071412   -1.42285583260085
H          -1.16312479419014    0.07571250301560   -1.78529199211707
N           2.39847395478808    0.09736788120638    0.45315618468576
H           1.52839129056868    0.65213444800480    0.74125489795321
H           2.23341527935435   -0.16849322888918   -0.54642261034450
H           3.24604935673613    0.64472804459393    0.55851137466823
H           2.39886291667959   -0.75125485090503    1.09254952442693
