    26
        -50.46541989  Gyration_radius:  2.48785023442 Dipole_moment: 6.193
 S           1.69600002589536   -0.25823388941813    0.89171660823905
O           2.77391769650744   -0.97396600126737    0.26641662768422
O           2.01349752239381    0.50013294097088    2.07425636154469
O           1.16036889956665    0.81628292407488   -0.16096487150346
O           0.51371436268454   -1.12538447027935    1.12166743782263
H           0.16113189812535   -1.99147319285191   -0.18054737392018
H           1.32648027911324    0.38589714466492   -1.03223810598367
O          -0.06679442989011   -2.44294321546784   -1.03491890696291
H          -0.03976187682478   -3.38352227801466   -0.85556280308551
O          -2.75956610249870    0.94825073257929   -0.47180140317948
H          -2.19747100730050    0.55926628810926   -1.18253067114153
H          -3.64364514857296    0.61066916889768   -0.62122272274703
O           1.78568788705423   -0.75268855519991   -2.16084762484388
H           2.48659643996064   -0.93753495033527   -1.50760180656799
H           1.17411450732947   -1.50136401056896   -2.05906208743256
O           0.53991314379835    2.62678697368406    1.93464566425882
H           1.21370347129871    1.92267992355278    2.11095634448996
H           0.73976396773784    2.93755760832181    1.04781159190971
O          -1.28706685953695   -0.32252652165074   -2.28458749408666
H          -0.48366574095101    0.07765260893043   -2.62744731910470
H          -1.01124032673747   -1.16147736902162   -1.87919825827760
N          -1.24285340473785    0.69117699690684    1.73389823232011
H          -0.63666134971908    1.56089519695288    1.83796560827749
H          -0.56859855551976   -0.10990540559659    1.53179971185132
H          -1.75858641516558    0.51484678989614    2.58961971536814
H          -1.88897888406427    0.80892458211426    0.91777753509055
