    26
        -50.45601717  Gyration_radius:  2.46317354622 Dipole_moment: 7.059
 S           0.20179440323519   -1.93580997320616    0.47376699932527
O          -0.40833866072339   -1.52771832190910    1.73465401312419
O           0.19241610041877   -3.33166246674075    0.20465054817199
O          -0.70138348433834   -1.20722682045629   -0.65739958316348
O           1.50058995329447   -1.28550694227881    0.27733911738089
H           1.81274827446124    0.14918064532229    0.93401336111500
H          -1.61254454762185   -1.43960848777411   -0.37169226608496
O           1.95510362951306    1.12413730783315    1.07412194766140
H           2.90300766751021    1.24134414758064    1.15210375196206
O           2.20345028049656   -0.69367724041996   -2.22828668891621
H           2.04120459199747   -1.01216071235725   -1.31342210399051
H           2.16293449426881   -1.47304830743444   -2.78341858441662
O          -0.83599624798706    1.06696716853980    1.54309684422561
H          -0.73216375832521    0.09669372917938    1.66496872630801
H           0.02561690240409    1.42455444508735    1.78158636537832
O          -2.82707492635138   -1.72608788884232    0.76438206467628
H          -3.28299550283466   -0.93830427441147    1.07182320773969
H          -2.07679871690549   -1.86104143717936    1.37798449283335
O          -1.57236801680167    2.58343622209827   -0.57866091482527
H          -1.43359522641909    2.04078968358120    0.22604751054873
H          -2.21912819563492    3.25061307392718   -0.34967339665890
N           0.54301526401134    1.12195118439725   -1.22456828375453
H          -0.09739955873992    1.89697548118094   -1.43490754827608
H           1.12140871924162    1.34100102256721   -0.37908410462974
H          -0.03186548731130    0.28479433386364   -0.97592734460054
H           1.16836206897363    0.80941442781217   -1.98349813120757
