    26
        -50.45755849  Gyration_radius:  2.40741769042 Dipole_moment: 7.009
 S           0.13827145238116   -0.18476763012512    1.99232156728439
O           1.52833959363418    0.13651539413058    2.21238895683456
O          -0.65952742611432   -0.54519483668313    3.11338667605995
O          -0.53493396212297    1.17002078434011    1.39592893315676
O          -0.01829428254586   -1.13910643025472    0.86805284369824
H           0.88640166067120   -1.29152509410973   -0.39990550096863
H           0.13050982999879    1.57851823731793    0.79212274160479
O           1.40003978999324   -1.34033633986637   -1.25560888680755
H           1.55009056075904   -2.26995155717966   -1.42843319195432
O           1.05267841939327    2.23248266140479   -0.42898429255059
H           1.34172013040584    3.12360645917032   -0.22907470297085
O          -2.38282727999665   -2.14216113819339    0.51201732883745
H          -2.31400735197627   -3.06481220754309    0.26455990271016
H          -1.49325356705980   -1.87411752670026    0.85254637571063
O           2.92744200229853    0.56673138833637    0.05129208078184
H           1.86717380313400    1.63828617317936   -0.30058277852823
H           2.55715737283306    0.36011070104530    0.94466467626487
H           2.67929781940759   -0.18420640640538   -0.50988120143412
O          -0.25392891052756    0.58452238080363   -2.20634477012337
H           0.34594312308996   -0.17397027765629   -2.06212680348260
H          -1.50109658537807    0.36743098923663   -1.28827307444115
H           0.20088400775829    1.33079864737313   -1.78051148893950
N          -2.21939053319462    0.30333158073097   -0.49208724115653
H          -2.44697623776195   -0.69715315888643   -0.27802499712295
H          -3.05730318497714    0.83849675367293   -0.69385276104095
H          -1.72441026413834    0.67645044282158    0.35440961857698
