    26
        -50.45755838  Gyration_radius:  2.40715790935 Dipole_moment: 7.011
 S          -1.96296803683217    0.15629588110565    0.37920753376862
O          -2.52877745624678   -0.55062659652261   -0.74514177361042
O          -2.84793731013042    0.74435743295155    1.32490284158389
O          -1.11183339834164   -0.95244562644950    1.20976379814152
O          -0.90925791327344    1.10272230139832   -0.06005733784398
H           0.05222985943649    0.97536590039483   -1.28851302925717
H          -0.68201476993554   -1.54147989091045    0.54446608233366
O           0.28792770642774   -2.44533123949446   -0.46069681055899
H           0.08303390663803   -3.38021400593577   -0.42058478691223
O           0.73127323921251    0.86557649336378   -2.01319635299872
H           0.78985935635807    1.71059289719152   -2.45921998170850
O          -0.00099646360096    2.74516495017861    1.72885974006604
H           0.15517148577600    3.60419217788300    1.33544736833102
H          -0.54989380166673    2.23441618898695    1.08309590615544
O          -0.80153443909803   -1.38832035078529   -2.51371665560656
H          -0.24964897750712   -0.60336476451454   -2.65389558440640
H          -0.09898039296293   -2.11071971671773   -1.33904445882911
H          -1.57372929996559   -1.07446955143019   -1.98155512299448
O           2.22863768905113   -0.50780399971077   -0.21951045613175
H           1.75022136462168   -1.34940924810019   -0.30885065141629
H           1.87409991148573    0.04608154203165   -0.94300278083639
H           1.66836240180988    0.06995469883087    1.12140416941430
N           1.09343821792791    0.34686242338440    1.98556248884087
H           0.87712894544702    1.37248040371673    1.97299133796344
H           1.55224645494999    0.07570267950476    2.84875672227972
H           0.17394170034157   -0.14558096040963    1.87252779423771
