    26
        -50.44598982  Gyration_radius:  2.51181693499 Dipole_moment: 4.288
 S          -0.10599164504541    0.65412475949877    2.35008721727899
O          -1.18753289804742    0.07853871387192    1.58111969760677
O          -0.02451382243135    0.28609327678497    3.71425306557651
O           1.21148782469033    0.27987902381353    1.59711726065554
O          -0.11227552822837    2.18646599525347    2.19826199435816
H          -0.33984747340493    2.34359419621939    1.23553417218181
H           1.09291424671362   -0.65207434052225    1.18792758982964
O           0.92404601005635   -1.98073337800053    0.49925944515665
H           0.28548725952178   -2.47596135080430    1.01507716664579
O           1.05759109460712    1.01310709503813   -1.97606261102740
H           1.40399409704461    1.50484698982178   -2.72169322521287
O          -0.81844028197034    2.01201063519908   -0.25956330601244
H          -1.20264564800379    1.19193153287079    0.08595499279057
H          -0.13113620377281    1.74193387701513   -0.89875092959214
O           3.02002426692001    0.01768176197709   -0.48457109728750
H           2.86793213134961   -0.93190289610836   -0.44464477559819
H           1.83790236319996    0.68558873749841   -1.46439726199344
H           2.75544097093460    0.35866458901320    0.37958408007338
O          -0.26350325385417   -1.42030538070642   -1.71611205043450
H           0.48079917248761   -1.80865329954493   -0.39642261802492
H          -1.19785002244897   -1.25079879182942   -1.44075625050536
H           0.10453998557287   -0.56305434604714   -1.98059169865215
N          -2.70489706190875   -0.88267419661096   -0.68206835685653
H          -3.20906134918075   -0.07367592100974   -1.02428050584501
H          -2.37973145043264   -0.66768829753053    0.25783208085601
H          -3.36473277435188   -1.64693898517290   -0.61209407596376
