    26
        -50.44312250  Gyration_radius:  2.51322777863 Dipole_moment: 5.512
 S           1.49303818365766   -0.05399451811471   -0.48103727253444
O           0.45348307558967    0.84208483489885   -0.93127289761810
O           2.81270335595502    0.45575910040717   -0.42737509481265
O           1.06654126592746   -0.55718933143157    0.94216438249085
O           1.41667372381570   -1.37061532260155   -1.26208655623029
H           0.43231270931092   -1.51460098211083   -1.43962221166523
H           0.80150529168683    0.20677405065830    1.53994077649708
O          -2.48861672986525   -0.86450579021128    0.63527724418389
H          -3.33601778865850   -1.30145893553792    0.73550982737549
O           0.15127334006661    1.31482368732935    2.46237093434749
H           0.72582703139991    2.07510382162909    2.56737997196901
O          -1.10740365986698   -1.35003927102379   -1.65230343259733
H          -1.10294064625896   -0.48040071921031   -2.06526986546144
H          -1.60614071032238   -1.24396541780658   -0.81419572156485
O          -1.56407857187278    1.75779501882858    0.58033310806273
H          -2.11419852529579    0.95837309998364    0.57084452299509
H          -0.58181221183907    1.59422569873479    1.83320537038777
H          -0.88828652782944    1.60743640694855   -0.10619357156456
O          -0.94081478658654   -1.34184350275920    2.73536235693124
H          -0.13002230142805   -1.63378819141555    2.30354380132313
H          -0.73908198469123   -0.46988363768688    3.09622254964693
H          -1.95605498991415   -1.09409540436249    1.43802501300643
N           2.26852710703237    0.68918333067391   -3.34204700136723
H           2.26946331649366   -0.31540867165893   -3.21292385302610
H           1.52771410399277    1.06127058336570   -2.76111064960606
H           3.13640693923455    1.02896006271498   -2.94474172093495
