    26
        -50.44312214  Gyration_radius:  2.5134847682 Dipole_moment: 5.509
 S          -1.04088725833308    0.04890303754794    1.17503301930271
O          -1.10581312097476    0.74187792790000   -0.09061676142344
O          -2.26393240586118   -0.38004917538083    1.74461574540206
O          -0.09852287350143   -1.18683911902754    0.96219911441076
O          -0.19780543263146    0.85814227384525    2.16692093424275
H           0.51161612372649    1.30688324238047    1.60422198306922
H          -0.35247156820157   -1.70905826702607    0.14134860581398
O          -0.53265087565674   -2.44661715372978   -1.24673220265815
H          -1.43758618020508   -2.73027315345334   -1.38738885953067
O           2.39274131696007    0.10487267246657   -1.27029572159731
H           3.28631883031985    0.25556369419139   -1.58314776282660
O           1.35401948865236    1.93464297425343    0.44747212648309
H           1.78147335103100    1.26507769189708   -0.12811344720436
H           0.63282988622721    2.30392496340173   -0.07227366460613
O          -0.12642351771996   -0.17585942081891   -2.41310928540778
H           0.81183584372066    0.00903953957528   -2.24782455301015
H          -0.38733560495004   -1.64704229975491   -1.83891951610731
H          -0.60561312021560    0.30008470099020   -1.70996273682512
O           2.16627977040591   -2.32598872255433   -0.23455339072556
H           2.37934296188452   -0.80665441527663   -0.88331549074963
H           1.75432641292521   -2.12701633828487    0.61386122282320
H           1.47880724498892   -2.75455141857876   -0.75887109526372
N          -2.68776211716752    2.56383129846597    1.72937711745555
H          -3.42599511349121    1.94023881628817    2.03388704562268
H          -1.93393467632843    2.46161772067372    2.39811731558643
H          -2.35285736593746    2.19524893025420    0.84807026765599
