    26
        -50.45825237  Gyration_radius:  2.58560306462 Dipole_moment: 3.183
 S          -1.46227681927714    0.97908028627712    1.48168535028025
O          -1.75023852229709   -0.22335196809153    2.25460172463362
O          -0.03152611748908    1.17603805102588    1.30945492770181
O          -2.21204289543327    1.03806248263875    0.24651179584102
O          -1.94891661135011    2.21078374056905    2.35935649572433
H          -2.89946537540813    2.16975115569323    2.30913922340615
H          -1.70295003977713   -0.07126202897117   -0.79661201583390
O           2.52162670432183   -1.06221006433102   -1.31151453637187
H           3.09412117067503   -1.37320468574292   -2.01351685483128
O          -1.40129026093984   -0.76460314685945   -1.43705673167663
H          -2.17041579181479   -0.98054471568726   -1.96701028915114
O           0.63757652900146    2.73984304385971   -0.74306600001265
H           0.30877599436720    2.21178578497559    0.01218112534175
H           1.43893572614945    3.16866115074083   -0.43820552209936
O           0.47207348035244   -2.49856948085373   -0.45054518774677
H           1.29164441161601   -2.08769331359595   -0.82083443436534
H           0.52101137657122   -1.91827520439462    0.93487301278599
H          -0.26262315617055   -2.00506190603333   -0.86120609741088
O           0.82596386672243    0.60723717678369   -2.40991547338765
H           1.94544444545185   -0.36179979869803   -1.72516472917489
H          -0.00932930609743    0.15732940081940   -2.20478810591278
H           0.77979917195495    1.45534084854253   -1.92571480917893
N           0.53423205674289   -1.32552021316145    1.85030974069160
H           0.83829243190044   -0.36576743057510    1.60989159554297
H           1.10333822424081   -1.74314868466741    2.57807844556145
H          -0.46176069401593   -1.13290046026736    2.15906735964617
