    26
        -50.45106534  Gyration_radius:  2.37017102582 Dipole_moment: 7.553
 S          -0.84282676221225    0.19555215584947    1.78560432062412
O           0.19032011754649   -0.10851649492903    2.73289420544299
O          -1.84581194889820    1.16746945353547    2.12359216290548
O          -0.12529246724026    0.78739378556628    0.48280997021520
O          -1.48180727246687   -1.03009693475617    1.22899427769734
H          -0.66755836804569   -1.97062895181488    0.22687135786237
H           0.55055981391870    1.45963852399025    0.71801143832941
O          -0.16716804059145   -2.47540731621784   -0.46613290550532
H          -0.45455756818529   -3.38654554758272   -0.39651585983781
O           2.17331635540093    0.43827905326679   -1.18551655649551
H           2.94150796332063    0.10709254041448   -1.65341071283806
O           1.80570523375931    2.58970180636443    0.42576169826779
H           1.49840649580622    3.33905073896340   -0.08719818957286
H           2.15061631776575    1.93433340377054   -0.21115232765495
O           1.91318587906586   -1.16198966597788    0.89846084874090
H           1.32958780355987   -1.81517220308630    0.48506818877912
H           2.08295426228391   -0.13676151753310   -0.37524099882631
H           1.40943818481312   -0.78814949698558    1.64705652148166
O          -0.41592912942414   -0.25058516456351   -2.09612914680743
H          -1.65263161445225    0.29938463707178   -1.28435942531904
H           0.39963078956306    0.19878577891115   -1.80836794318393
H          -0.32678117904465   -1.14212360967075   -1.71405161437649
N          -2.46516013238034    0.42928354485578   -0.58554869860687
H          -3.38250594961061    0.32538045273290   -1.00729232848524
H          -2.37504198489653    1.30407121894248   -0.06482474270242
H          -2.24215677935642   -0.30944018112247    0.18061644986904
