    26
        -50.44639628  Gyration_radius:  2.51460823449 Dipole_moment: 3.611
 S          -0.31649885677268   -0.92240973092194    2.13602077813596
O          -1.53907757521007   -1.53143571229428    1.68816772404562
O          -0.01209666392933   -0.93022917481969    3.51665956521573
O           0.87639252186650   -1.55249103100490    1.37149832750781
O          -0.31489590949074    0.55952817781259    1.62589645926787
H          -1.02780588704316    0.70044019233275    0.94112452298287
H           0.67001392337436   -1.60382388782218    0.38958563352242
O           0.46769486358031   -1.61181512580468   -1.16898297655480
H           1.01369166298317   -2.30220979319324   -1.54908268462880
O          -2.18805601373088    0.93280233689357   -0.13839194109975
H          -2.99826063240525    1.11498744327669    0.34108457139515
O          -0.45540152041112    2.29156338812718   -1.83033660610379
H          -0.90075185755838    2.32819527726368   -2.67828656306906
H          -1.08860693236796    1.91853129227817   -1.19678972849088
O          -2.26166066085712   -1.53266866528115   -0.87275709050040
H          -1.37035366647130   -1.67191403124898   -1.23114825811654
H          -2.18917025282062   -1.78872372036608    0.06667060493003
H          -2.28892801244867    0.00409430717281   -0.52196078086381
O           1.65948102565063    0.57775641411179   -1.63894701676710
H           2.08693969652955    0.76233122826372   -0.76627885112407
H           0.92851293289708   -0.72672338356680   -1.41375374550853
H           0.98642660062592    1.27576016639414   -1.75302965312660
N           2.54554884028099    0.92429410854077    0.89534939149226
H           2.84370111060811    0.02715039747183    1.25973014954545
H           1.65638336653443    1.13502994280616    1.33699196090977
H           3.21677788661336    1.62197955350728    1.19096622704474
