    26
        -50.46439121  Gyration_radius:  2.39574967087 Dipole_moment: 3.896
 S           0.40887743404451    0.31190742917346    1.73074530140710
O           1.23905526557989    0.72261569944459    0.59946386571905
O           0.24485500824196    1.37582632117010    2.69220242072322
O          -0.90949520303456   -0.15877930329740    1.25201565491672
O           1.09764380594980   -0.91008311567498    2.39775004941803
H           1.12182728602806   -1.60933233349101    1.69406588898334
H          -1.68944393459245    1.22041478753854    1.08139352981990
O           1.24673896180445   -2.64044387218699    0.40382501951283
H           1.97597602287313   -3.23692122704050    0.58240843551088
O          -0.51496666678451   -0.10122749159583   -2.50480855311160
H          -0.95042137295519   -0.27940314256051   -3.33895489449831
O          -0.10871695696377    2.23452210870221   -1.08169405678445
H           0.57144003364600    1.80082824183110   -0.51877241192884
H          -0.35872666946345    1.53131846258701   -1.70904158573460
O           1.95063692120495   -0.87440784558521   -1.37410420009927
H           1.23392031627182   -0.65358004603271   -1.98886124094203
H           1.87853544247980   -0.19449673748111   -0.67243648707688
H           1.55579302517578   -2.03398296050098   -0.33266311363339
O          -1.27811789921204   -1.87251088576467   -0.71331730721695
H          -0.58796973146918   -2.51807143057695   -0.52382250367463
H          -1.25145063213516   -1.26863226846957    0.05966441623676
H          -0.86310631276566   -0.77150274539162   -1.85758430357013
N          -1.58668794033542    2.27704430576375    1.04102191679620
H          -2.44358265814162    2.80295624856676    1.17557241980192
H          -1.09055939492925    2.44772287772534    0.09537857779947
H          -0.89205414052039    2.39821893311511    1.81055318164217
