    26
        -50.44327691  Gyration_radius:  2.61087755401 Dipole_moment: 5.301
 S           0.49611934093804    2.55145470781767    1.21084401216145
O           1.63244649873070    2.10939887341083    0.44113359097863
O           0.35605556238921    3.94038768997398    1.43196655101916
O          -0.78011708045131    1.97159165556324    0.50171235942274
O           0.46583229381180    1.81035502750020    2.56580477210091
H           0.45586274839679    0.82626382502280    2.39040588731395
H          -0.50095968748212    1.62570893265168   -0.40125220884269
O           0.27774689535730   -0.72334378632908    2.05564502395299
H           0.23197357641692   -1.24124591651642    2.86113334616725
O           0.11536996570798    1.03266338542190   -1.72201543398669
H           0.72362804365867    1.71480805823813   -2.01769572914824
O           0.99025397481121   -2.58091135697154   -1.84179807248195
H           1.42439773548948   -1.87210319024233   -1.34486428282109
H           1.63187271822343   -3.28670333415857   -1.92894266765069
O           1.78687505169564   -0.45359082658021   -0.21514208311092
H           1.32103778439834   -0.78204359513228    0.57107359813147
H           0.67971428877484    0.33161781835776   -1.31986563430499
H           2.03341203891953    0.46121480237242    0.02431862859510
O          -2.04382530943122   -0.53229545775523    1.02133830645422
H          -1.96813579838935   -0.91022558789458    0.09356576673157
H          -0.66514140646360   -0.71659251715577    1.66520871886611
H          -2.08090375799521    0.42436085455151    0.91004497263724
N          -1.70514819064395   -1.36969867076389   -1.47196989072625
H          -2.48360195609597   -1.83457751860912   -1.92153764011010
H          -0.89184155088584   -1.97235409535459   -1.56548543590022
H          -1.50292377986263   -0.52413976740318   -1.99362647544047
