    26
        -50.44327675  Gyration_radius:  2.61060709098 Dipole_moment: 5.298
 S           1.80450632839642   -0.15766140950491    2.22157427743795
O           2.35808177018548    0.63934127585030    1.15504945548195
O           2.28769339231682    0.07352245999011    3.52948943270022
O           0.24639391722848    0.03479757341429    2.16428579331621
O           1.94799848410233   -1.65683603015458    1.87867401666056
H           1.50710806243594   -1.82633589095555    0.99753295887774
H           0.05320375367269    0.80782932506532    1.54948899374998
O           0.65204850768984   -2.07413474403127   -0.32584670812066
H           0.68551891580365   -2.99707911777001   -0.58307791084107
O          -0.08312026340808    1.95298715869108    0.47880494516134
H           0.60271350548900    2.57925816169169    0.72404388655191
O          -0.74741885350986    1.04128483735337   -3.06511954955956
H           0.06322388739284    0.91053181313743   -2.55168427065216
H          -0.49180644920628    1.03024915138585   -3.98814391185867
O           1.29383437783560    0.41995002832650   -1.26170346653719
H           0.26964383688527    1.46723930738484   -0.30293667628381
H           1.93467929596196    0.55618483720798   -0.53654612132670
H           1.03044810790553   -0.50991916744751   -1.16737711836510
O          -1.62097276946286   -1.54616831751631    0.69885013563140
H          -1.32464196970816   -1.13191599016361    1.51713798659974
H          -2.01049259568104   -0.80380013450149    0.14528090434189
H          -0.28856459902989   -1.91080287727993    0.03503871059641
N          -2.48299220368528    0.53689945385231   -0.69774315517945
H          -3.48174243042873    0.63104214749132   -0.83131410460367
H          -2.04406329161415    0.59239336101426   -1.61295067287590
H          -2.16128071747665    1.34114280763771   -0.17080784075443
