    26
        -50.44327689  Gyration_radius:  2.61033032515 Dipole_moment: 5.298
 S           2.31352750300736    0.67300776902585   -1.55218655040617
O           1.21378499227936    0.28196027634501   -2.39884137049833
O           3.31122147451539    1.50038288604255   -2.11579981582949
O           1.68411761991205    1.35052190619831   -0.28218533760142
O           2.97296628280761   -0.58400517329610   -0.94284875404095
H           2.27388326945635   -1.10550870243444   -0.45425412183221
H           0.71121850190768    1.52208149779539   -0.47453747930037
O           1.16138324120840   -1.81244741701720    0.44413940394670
H           1.51633424349899   -2.59519803671814    0.86891593357186
O          -0.80409947918064    1.61588154816601   -0.88796036156898
H          -0.77466073252796    1.92475012752512   -1.79706946425060
O          -3.14040120848210   -1.05217903992757    0.22165717018045
H          -2.43247694925528   -1.10760240246593   -0.43684255715638
H          -3.74734825926543   -1.76850114586990    0.03216882928077
O           0.93339001157658    0.06622324552156    2.15139278558733
H          -0.03446741994957    0.33539427364967    2.14425492109527
H           1.05143687669156   -1.11241852543374    1.17855511734461
H           1.39962143357623    0.76131908412534    1.67345236265792
O          -0.80204740484901   -1.04896871356629   -1.30760281487011
H          -0.26801020892954   -1.49195610890735   -0.62822368443917
H          -1.00270685763921    0.65205205513628   -0.94247280761909
H          -0.14102044629114   -0.72591295490851   -1.95074685574482
N          -1.59365084751485    0.83791530206785    1.92550523880847
H          -2.18262019682750    0.10611093176156    1.53693946476083
H          -1.56618047275194    1.58452676494749    1.24009068970887
H          -2.05319497696281    1.19257055219785    2.75450001820379
