    26
        -50.44327690  Gyration_radius:  2.61059814125 Dipole_moment: 5.296
 S           1.31636714300379    2.35657582776847   -0.96447695475132
O           1.52421231019243    1.24152268684131   -1.85476565698145
O           1.43357767058733    3.65683829248185   -1.50593202861537
O          -0.09845137640339    2.15341911867236   -0.31221560512102
O           2.24805127170211    2.22437740577212    0.26037489607590
H           2.07794551753307    1.34081780447272    0.69612204408439
H          -0.57400277224982    1.43014089399638   -0.82552220879640
O           1.65503052905114   -0.00211220565174    1.44567931264318
H           2.18868395351544   -0.13346255855243    2.23125505031528
O          -1.12966171619125    0.21219078715020   -1.65314910733848
H          -0.89914877668952    0.42709062642585   -2.56055574487044
O          -0.75540980190704   -3.22326537469666   -0.27307049917682
H          -0.06942454732893   -2.63643711518422   -0.62346232371811
H          -0.40590982277274   -4.11366494605876   -0.32289868880524
O           1.05428880406025   -1.20234529516508   -0.94331291816555
H           1.43284967320001   -0.45394844688759   -1.44487626982109
H           1.29167870913060   -1.00802828643125   -0.02197755667926
H          -0.47721143393478   -0.46969647343440   -1.36879810233951
O          -0.68279682149607    0.76548120224251    2.11000384684224
H           0.72423817819397    0.26008499217933    1.77180518869131
H          -0.75162182999261    1.54387242896872    1.54578345568083
H          -1.31877260327383    0.09213108273384    1.72087122055189
N          -2.29166786192266   -0.95078562732231    0.88600848228619
H          -2.49684151381038   -0.50989947218884   -0.00366646098864
H          -3.17151630187957   -1.17195822980868    1.33453059758749
H          -1.82448657034984   -1.82893910821385    0.67624605146432
