    26
        -50.45002643  Gyration_radius:  2.51485634583 Dipole_moment: 6.074
 S           1.73854981469960    1.07323214233104    1.56890610447042
O           1.28559177097611    1.50849966600795    0.14628342867673
O           2.95498369293299    1.69933876877281    1.93248174370293
O           0.58648817563749    1.63366279900148    2.43853650196953
O           1.69836674694198   -0.36915538602209    1.62971584137737
H           1.54639884904771   -1.70453689904412    0.73767346252857
H          -0.21803986896805    1.12492410200015    2.15057016698693
O           1.42585535735141   -2.42429734791903    0.07337394800527
H           2.05121265022506   -3.11172616793706    0.30616332394446
O          -1.15407953635127   -0.60980471131748   -2.30093621820476
H          -1.37044960494750   -1.19993413305891   -3.02381003246281
O          -1.51473987497222    0.42672259489204    1.49836892890868
H          -1.58387076526685    0.98247195172515    0.64423267695499
H          -2.29851562546026    0.61362570835297    2.01838479566914
O           1.45170486618288   -0.28509734093621   -1.63143390022947
H           0.53940964725793   -0.31161501597215   -1.99193480735849
H           1.42282529611030    0.78063333225492   -0.56722637510163
H           1.56398396013432   -1.12853327717369   -1.15605079086038
O          -1.29281331257333   -1.90804428528091   -0.01761515938396
H          -1.35464525160649   -1.20340137205243    0.64750546845540
H          -1.30151661599260   -1.12794346270468   -1.46349304508143
H          -0.39219901251374   -2.26288363827077    0.05678521582836
N          -1.51986431973063    1.83481982534095   -0.69263543111176
H          -0.57278676757370    2.19546614347546   -0.63558962264553
H          -2.14604249330537    2.60017882910224   -0.90478236411097
H          -1.54580776823929    1.17339718444168   -1.46347388094518
