    26
        -50.47356244  Gyration_radius:  2.43568119716 Dipole_moment: 2.305
 S           0.67859181538396   -2.06912700781191    0.16112199587662
O           2.05194263339451   -1.88283420480897    0.58486080903256
O          -0.25865154327586   -1.39301311106699    1.05468074406530
O           0.44103938537723   -1.74270632942602   -1.22509648166844
O           0.38708602387414   -3.62109383608426    0.31024897576732
H           0.85567727127423   -3.81623541164706    1.11449050587660
H          -0.65437577245879   -0.79371388133734   -1.85829390081164
O           2.29081398361943    0.58644642629085   -0.13582270609613
H           3.16304612021143    0.69322079014110   -0.52005483566823
O          -1.31612268169595   -0.15701811234773   -2.23857882650167
H          -1.49556159371964   -0.46658627186652   -3.12731178352796
O           0.76803286250779    0.76821594262670    2.20237565597064
H           1.53350836333513    0.89134958718704    1.62285633746801
H           0.41640829111040   -0.11272286090317    1.94956502753937
O          -2.47126286837423   -0.15167231612781    0.25573823311178
H          -1.77028442900681   -0.73570701937813    0.61658434045078
H           2.21098242769990   -0.37497728553991    0.08656389140094
H          -2.33162420045866   -0.17270432107861   -0.70568694075331
O           0.24727186512583    1.92918471102324   -1.40248469756343
H          -0.29023849801874    1.25456473611925   -1.85769804304251
H          -0.60279718220845    2.16751788983585   -0.07341209416477
H           1.02453297279695    1.45411820875056   -1.05340874504305
N          -1.11413995750224    2.01798673274737    0.84692856180001
H          -1.80928190845902    1.22674839741886    0.67684886792311
H          -1.56223315945322    2.86040560968779    1.18575786543691
H          -0.39236022108356    1.64035294749287    1.52922720316479
