    26
        -50.47356253  Gyration_radius:  2.43544559812 Dipole_moment: 2.302
 S           1.44242578812534    0.94292659288947    1.33969623223662
O           0.69169083203095    0.99093098705284    2.57838055017489
O           1.51489547402956   -0.41420707149463    0.80425374227614
O           1.00352334021959    1.89660542191474    0.34850599812548
O           2.92859817978901    1.34639163417363    1.71982354742453
H           3.02114703796054    0.91900154608613    2.56445260579391
H           0.62172254704750    1.66094819011446   -1.16796460309134
O          -1.65739203403897    0.67814959455121    1.54940257462605
H          -2.25693546711129    1.26648980142706    2.01224423166550
O           0.33716100961716    1.49104005998694   -2.10504299358756
H           0.50950745337916    2.30388996575690   -2.58194324012605
O          -0.58830426291700   -1.90320644450689    1.43774260228657
H           0.27932202586554   -1.45466468595569    1.33958827580420
H          -1.18856488838658   -1.19645981658374    1.71538845732725
O          -2.03285641573838    0.48648685129557   -1.17212491697294
H          -1.54654495229966   -1.02997305228548   -1.27041444286783
H          -1.94614317814568    0.65686272297824   -0.21548968438159
H          -1.28782448107320    0.95621650799967   -1.59107909955947
O           1.40539907133658   -1.02087692041423   -1.78321677518082
H           1.16111720952891   -0.15206997698639   -2.14352372492889
H           1.62304729911534   -0.84225611309678   -0.84332120798337
H          -0.76105227674779    0.85294627208531    1.93159935820767
N          -0.98230148056402   -1.92543191375240   -1.16722208061378
H          -0.88454419792640   -2.09543309016100   -0.12286399699325
H          -0.00307682949133   -1.70420437970790   -1.52828979124465
H          -1.40401677364423   -2.71010269340418   -1.64858161838291
