    26
        -50.46294015  Gyration_radius:  2.65556221443 Dipole_moment: 5.947
 S          -0.12928416514730   -0.38735410069691   -0.51638297267633
O           1.41829371026380   -0.36922519631064   -0.68307172562647
O          -0.43664718287802    0.69352514900186    0.44318865108277
O          -0.76663365525252   -0.18698379543436   -1.79106000879354
O          -0.39398291430595   -1.68423143207050    0.10706846522490
O          -0.34753696705844    2.66351201679071   -1.37506958664527
H          -0.91753979286620    2.30042406506942   -2.05873499973157
H          -0.44673236021639    2.06008767701315   -0.61593226871899
O          -0.94544568655108   -1.25807847749004    3.99114080912839
H          -1.13087053072022   -2.12801824900881    4.34821711978014
H          -1.61580273171136   -1.10468229189691    3.27611970539247
O           0.57755846179915    0.29978765665562   -4.04695083197959
H          -0.01734944601609    0.09697407045263   -3.29646471165179
H           0.80195082875155   -0.54315689426347   -4.44332739519529
O          -2.35160450048242   -0.90568517779382    1.77860660749463
H          -1.79599483529255   -1.38019933118743    1.13036788484224
H          -2.27270145049772    0.01870144915196    1.52030935178145
O           1.98227804278615    1.60505840730168   -2.15413927491358
H           1.26253573274454    2.21627016705623   -1.87782164092812
H           1.71783444979095    0.42895885101032   -1.26698638900987
H           1.68179804792632    1.24599256730339   -3.01346465966775
N           0.86824701035965   -0.74015467866803    2.14624636344360
H           0.46981642753755    0.12498604509075    1.68474982143374
H           0.59504000157194   -1.44059279687667    1.40414111893761
H           1.87189713975509   -0.67850030408150    2.28116003209845
H           0.32087635569920   -0.94741539612421    3.02809054488150
