    26
        -50.45739057  Gyration_radius:  2.46408102962 Dipole_moment: 3.070
 S          -0.66267176019095   -0.56811334872640    0.63552790102822
O          -0.68234017103832   -0.42203772749257    2.07849105684280
O           0.38716211188200   -1.45123925392423    0.16983807085000
O          -2.02230406109408   -1.14464015501299    0.15050118136134
O          -0.54022150675254    0.76240468723681   -0.00867932934690
O           2.94295281385365    0.68004978972217   -1.65868917857788
H           2.28504257223175   -0.00095418117653   -2.02155999263752
H           3.76260276542488    0.20689523701435   -1.50371497327137
O           1.96153440822093   -0.39048493403647    2.08687093889016
H           1.92637194279287   -1.14529293721489    1.48193849976233
H           1.03940408887186   -0.34503718239658    2.41734997882730
O          -1.24400503479030   -0.03719257925696   -2.48659693780179
H          -1.85029377849522   -0.74250878883691   -2.24756380556612
H          -1.03852011842146    0.41850254665924   -1.65121019126132
O           1.24105033328612   -1.11685685480031   -2.33509741182124
H           0.97157283316501   -1.41213080969434   -1.44240463254730
H           0.43017192801781   -0.71397782223691   -2.70110266322674
O           1.79431198554453    1.51363354110526    0.40717190437540
H           2.00410955947493    0.82402457248895    1.14508982471978
H           2.31749169943169    1.22409882617617   -0.46621930505129
H           0.78587172028272    1.32481449072798    0.19766755217248
N          -3.27767413422043    0.58844955312840    1.59754208590663
H          -3.25018821999152    1.50766955914089    1.17597520833145
H          -2.69920204131317   -0.56230728362158    0.62197783999242
H          -2.46444574378680    0.49116887587682    2.20102981380695
H          -4.11778419236270    0.51106217914893    2.15586656424094
