    26
        -50.45739044  Gyration_radius:  2.46454998588 Dipole_moment: 3.086
 S           0.15398149215886    0.02087651096420    1.06767301043396
O          -0.69523971267472    0.89288220211569    2.03463393969579
O          -0.79624899621035   -0.48625346448279    0.04784500846547
O           1.14518559702451    0.87809935450106    0.44946686232384
O           0.73877136174161   -1.08771448974453    1.79765940776833
O           0.37251221322826    2.30812675128063   -1.66617589442895
H          -0.58063501725403    2.35207778215016   -1.45785706609600
H           0.76880611453712    1.92024771674224   -0.86048193658756
O           2.54919374012396   -1.35291892093982   -0.11248695895181
H           2.04684154797364   -1.53792303335089    0.70883446219029
H           2.64635395806713   -0.39007003748897   -0.08060504280692
O          -2.00669524639774    1.87506937632229   -0.43520677319150
H          -1.92349566376022    2.26457699823358    0.43860544795618
H          -1.72329707436556    0.94944711788759   -0.33126795938324
O           0.87243376793711    0.40316971754784   -3.31087651228267
H           0.62436430819863    1.20057841346457   -2.73588640921478
H           1.77058982314042    0.55574752899987   -3.61022110126467
O           0.59545083387598   -1.52466166393106   -1.73336585963140
H           1.46743327754037   -1.56663835081592   -1.18368663204504
H          -0.09453027750603   -1.15206937366631   -1.03945789545321
H           0.70341184208145   -0.75788743519357   -2.45506711267188
N          -1.82935591889174   -1.23281733634475    2.96689150550569
H          -1.25927213632354    0.21185939670982    2.52223809766912
H          -0.93122760266425   -1.65800289351815    2.74854332672303
H          -2.09787564466871   -1.48730673210014    3.90847722110816
H          -2.51745660690368   -1.59849514532369    2.32177485416922
