    26
        -50.45344801  Gyration_radius:  2.41513981919 Dipole_moment: 1.803
 S           0.07078501648271   -0.78955956121859    1.58572517740260
O           0.67211826721278   -2.20051047122364    1.49565523846517
O          -0.42704385194124   -0.54049907957962    2.89027096831155
O           1.27691475971390    0.16078489824183    1.34613064095744
O          -0.86841850433739   -0.62475980849563    0.50375003958521
H          -1.12546099260453   -0.94823449513713   -1.06892353777412
H           1.68709517051984    0.01371103880933    0.43540855553975
O          -1.10560696062455   -1.20010573015580   -2.01974171292049
H          -1.98538522168387   -1.50708704975040   -2.24243577585289
O           2.29589252034223   -0.12505290846489   -0.99279228212112
H           3.11395388907654    0.36822300452152   -1.07451978746978
O          -0.11236905759010    2.40849573246326    0.14249682826752
H          -0.93566264762645    2.22054468491333    0.65130846974528
H           0.59386978151477    2.08496461824678    0.70825815600178
O           0.42828456713069    1.14820899234012   -2.15090214836061
H           1.59290958761798    0.39230409387168   -1.53181013613399
H          -0.23985401654531    0.46211583156722   -2.29530421601580
H           0.11965532868383    1.69417429259195   -1.38898637487270
O           1.06199797422417   -2.55631403088083   -1.00385451381276
H           1.73145171668687   -1.87159373758464   -1.15955401853957
H           0.81550852838805   -2.43683155558886    0.51591548183784
H           0.27564338309320   -2.25843170471276   -1.49871851494040
N          -2.07681782205700    1.67073125697200    1.86134716752856
H          -2.82096062774950    1.17673819177510    1.38505102628116
H          -2.50146281324682    2.28761435088240    2.54358760592974
H          -1.53703799463535    0.97036913562153    2.36263766300559
