    26
        -50.44506443  Gyration_radius:  2.49519825651 Dipole_moment: 5.636
 S           1.34347350147508    1.44264277656886    1.33351749404680
O           1.84051587441835    1.57947816787112   -0.00624365513205
O           1.85439364090499    2.29035227435442    2.34465198847386
O          -0.21820502211158    1.56459585436501    1.28027732566713
O           1.51790844564983   -0.03384084087565    1.78952079712582
H           1.53165320772114   -0.64765583081069    0.99919626222528
H          -0.50355864958700    1.90078309128788    0.37907862160362
O           1.64155793601046   -1.66346982606279   -0.22862420991855
H           2.50141017160949   -2.08642689049691   -0.20669411277780
O          -1.23814998638930   -0.10070049834683   -2.18018110721465
H          -1.74458007550275   -0.44139338003161   -2.91816939727234
O          -1.16002709876893    2.29449239259954   -0.99424267975841
H          -2.06462429921422    2.58549797413284   -0.86218004056213
H          -1.20081874823781    1.45345633563587   -1.49871556912964
O           1.53149111696549    0.02964783574020   -2.16221008168568
H           0.57802498643668    0.08484642509526   -2.34540164476496
H           1.73248728623495    0.77497884632189   -1.56611887835444
H           1.64229391672233   -1.05963994566729   -1.04078206303866
O          -1.13622211274579   -1.95451006497742   -0.36957276903664
H          -1.37329839216138   -1.63351211847100    0.53458150590496
H          -0.18574151063963   -2.12792204088707   -0.32640322640628
H          -1.24896401887812   -0.81714789771077   -1.47609991139987
N          -1.44633744664117   -0.98868940479036    2.13792463472449
H          -1.13938093821121   -0.02857252811595    2.00969540540066
H          -0.74433007270775   -1.44368381764666    2.70907799460474
H          -2.31097172235117   -0.97360688908071    2.66411731667339
