    26
        -50.44506444  Gyration_radius:  2.49506812498 Dipole_moment: 5.634
 S           0.62534503885127    1.38912100856909    1.82835813568486
O           1.75900402808165    1.37461616520217    0.94781267929482
O           0.63915843565642    2.25122016832659    2.95028044175928
O          -0.65080087952269    1.66860431189372    0.96249291815224
O           0.34786837985693   -0.05996119195551    2.32010041137868
H           0.69199494029412   -0.72837429961183    1.65937119377996
H          -0.38075631117297    1.96565950529438    0.04302799584870
O           1.29429150058699   -1.83727230192408    0.68021782640530
H           1.95578639130272   -2.34417436788027    1.15370487503033
O           0.07335591404964   -0.13143821248139   -2.50452575681821
H          -0.01383098831907   -0.47117010652885   -3.39566121640499
O          -0.17181560280787    2.32359947870315   -1.47374957409437
H          -0.05135271705414    1.45654541580963   -1.91781787295707
H          -0.96767600059400    2.71628320866539   -1.83816268153730
O           2.42072794738856   -0.28846687660758   -1.03751886777432
H           1.71717747136817   -0.14817081887450   -1.69407852838178
H           2.37559491573834    0.47359193941284   -0.43058998208813
H           1.79333407434655   -1.29802999057805   -0.01565242881828
O          -1.01608358908303   -1.84788985794148   -0.89479139893282
H          -0.39243558904278   -0.78936373665180   -1.90498019419589
H          -1.64503831011380   -1.43823870426180   -0.25186725511986
H          -0.25735938811815   -2.11569260509996   -0.35818444678887
N          -2.45778291284755   -0.67324302532096    1.06903249122009
H          -3.45984877525696   -0.53015374112877    1.06306756251425
H          -2.00990293167527    0.23771632803978    1.11278146631868
H          -2.21895505191261   -1.15531766308042    1.92733220652585
