    26
        -50.45706854  Gyration_radius:  2.5586497695 Dipole_moment: 4.844
 S          -0.15410677403258    0.76252566763226   -0.62668535672181
O          -0.34207432142562    1.72554119469124    0.54786244334705
O           0.70691165832246   -0.34760281190242   -0.18543133845310
O          -1.45499358974001    0.24378287286832   -1.05066581210128
O           0.50123261539363    1.50446363343418   -1.69964573213297
O           1.06317026263520   -0.11387796080061    3.67954251175960
H           1.62269233126947    0.19679370898153    2.93264695331162
H           1.28780630799524    0.43323100337765    4.43368631722843
O          -2.34880389705023   -1.34699397755551    0.87208205960034
H          -2.00157351988504   -0.83625738932486    0.10976445326591
H          -3.30472768982089   -1.29605226917349    0.81152728980230
O           2.25542368075202    0.95789261857972    1.51743231839938
H           1.83333395597524    1.81510556766514    1.41077485746627
H           1.78413325446070    0.37313671654987    0.88872156512970
O          -1.11990188386693   -1.11931287601227   -3.27121371757716
H          -1.34281213045571   -0.66621142774875   -2.42003231423503
H          -1.58646312583328   -0.63042414349784   -3.95173270458811
O          -1.26205565195016    0.47136368865885    2.49761997308197
H          -0.46513674548292    0.15766304536765    2.98738444748747
H          -0.76088084228696    1.22886570790858    1.38468370926721
H          -1.65538551062623   -0.31725294047390    2.06091732330859
N           1.39569827260384   -0.67130523228606   -2.62987093775515
H           1.34123781090015   -0.94178822065266   -1.61393285451248
H           1.21824942550176    0.38083382395656   -2.50102371116584
H           2.26313203503609   -0.92424408204683   -3.09020256273154
H           0.52589406161843   -1.03987590820782   -3.09420918047090
