    26
        -50.46788065  Gyration_radius:  2.39887640224 Dipole_moment: 5.649
 S           0.57040600621516    0.42095947073516    1.66107348626548
O           0.84843620008790    0.93259349855342    0.32356665855876
O           0.49475343174649    1.46888867547009    2.64276456760868
O          -0.66617246660337   -0.39498789639877    1.62224817302763
O           1.72777018187254   -0.55258635574364    2.04248577629592
H           1.83189357848454   -1.17567500554487    1.28394018081785
H          -1.54390930965869    0.43868380032019    0.71405355662517
O           2.03808487175822   -2.12746758832252   -0.08659282579123
H           2.94635778868830   -2.43370377238291   -0.10153545195229
O          -1.21869511589953   -0.48837101412479   -2.11570936358518
H          -1.80466887464700   -0.87212683586238   -2.76931466790701
O          -0.56571151240872    3.18236954367092    0.92321069485709
H           0.20369988971199    3.29061992167446    0.35654745810914
H          -0.21703179664332    2.68088245412556    1.69696757691574
O           1.61718901752522   -0.26569362561220   -1.86258855480959
H           0.75087761843198   -0.36021972677259   -2.28027726098443
H           1.44084146809489    0.32903831583570   -1.10018560753827
H           1.94874190546620   -1.46632530880834   -0.83410006854514
O          -0.74448539294382   -2.25523908457534   -0.25143989834524
H          -0.78013389243692   -1.67013123379382    0.53713908915083
H          -1.04279187177562   -1.20853927164307   -1.44255936873603
H           0.16856095516721   -2.56898656631136   -0.27330734920326
N          -1.94222595951783    1.11966687316425   -0.01727805989885
H          -1.66850725390212    0.73134532321499   -0.94272619388798
H          -1.44401500256714    2.03114559837381    0.20833337998215
H          -2.94926449424709    1.21385979075743    0.06528406296280
