    26
        -50.44506448  Gyration_radius:  2.49535484395 Dipole_moment: 5.639
 S           0.47867211211768   -0.06282456513241    2.33148584898061
O           1.68610751253688    0.38764129802384    1.69908719329545
O           0.40535229176031   -0.06886738353705    3.74447819664895
O          -0.71061063483116    0.77167189427266    1.74366151048604
O           0.13669516064397   -1.48809127944947    1.81131218098916
H           0.52817697467663   -1.63486214247035    0.90196547228882
H          -0.35501841665075    1.54909733723735    1.21863065750361
O           1.19855381931305   -1.95225476783829   -0.51269581478137
H           1.80645666568667   -2.68629938997844   -0.41111840365528
O           0.29972109731646    1.42212668823810   -2.04629456495237
H           0.28824988380731    1.70509988731833   -2.96115089902717
O          -0.00552886727826    2.74359074612762    0.25792392465863
H          -0.76008232625051    3.32822226534491    0.16188058764712
H           0.14365859103870    2.32313907804984   -0.61643762780417
O           2.50063985153547    0.24174195090143   -0.84222632916781
H           1.76714421368705   -1.13578214561495   -0.69779982420059
H           1.86243554522476    0.80148026368223   -1.31661178108165
H           2.41189503416396    0.47541253466512    0.10052921094073
O          -0.95825595127014   -0.84099792106763   -1.90350820518525
H          -1.63729765613430   -0.86792444932525   -1.18586201627512
H          -0.25584142937474   -1.43155280238328   -1.59818845863129
H          -0.22889259367942    0.56865927598912   -2.00847822260487
N          -2.55431185939745   -1.01765272800378    0.27299641165127
H          -3.54968551039093   -0.83457452973388    0.29594286819269
H          -2.09839202343180   -0.35701843424415    0.89600033038258
H          -2.39984147482503   -1.93918068106471    0.66447776370740
