    26
        -50.44506470  Gyration_radius:  2.4952928808 Dipole_moment: 5.633
 S           0.10431409270309   -1.13001294081587    2.09327296844000
O           1.43406965913964   -0.64934137042036    1.84517747003481
O          -0.18704650090735   -1.72892515765099    3.34164550504185
O          -0.88994974800994    0.05226437457159    1.82898937037120
O          -0.29404914391704   -2.12132848382021    0.96297586860684
H           0.21640664854645   -1.92355776955743    0.12512899158449
H          -0.38086897960695    0.91233256545480    1.74104279480208
O           1.06182090899248   -1.70493814577379   -1.21245416674122
H           1.57083864034478   -2.49713061455866   -1.39154252510358
O           0.74971106847500    2.09636177978832   -1.16191586151159
H           0.90765391839283    2.74136576721188   -1.85197075617135
O           0.23198282560103    2.33066566398706    1.45073640701775
H           0.46860870596497    2.30872063807004    0.49838262559865
H          -0.43429790020581    3.01259135481308    1.55765308701323
O           2.61032922529577    0.18430787347644   -0.40569783116722
H           2.40133803991431    0.00209269649540    0.52936490758999
H           1.73041014164715   -0.98845822027934   -0.95983808042927
H           2.11165533455003    0.98583484629606   -0.63908456465971
O          -0.73348264854714    0.21808324781529   -2.16057949387935
H          -0.14823690014113   -0.54819590289186   -2.08555566978081
H           0.13954974716850    1.40347732935639   -1.55782206996776
H          -1.51366560820237   -0.00716124228398   -1.59733113572609
N          -2.65310421368823   -0.62369059876846   -0.45096612801505
H          -2.23833726689446   -0.36925894406772    0.44100609375168
H          -2.64677419821004   -1.63574752163455   -0.49514843388732
H          -3.61887580839234   -0.32035123481633   -0.44546937280913
