    26
        -50.44506453  Gyration_radius:  2.49502489528 Dipole_moment: 5.626
 S           1.65921238524448    0.44021530131915    1.64768969856328
O           2.34506615521784    0.48001798529249    0.38720008122258
O           2.35907946766713    0.80590440604730    2.82176142745020
O           0.36063392387864    1.30768515782792    1.51434644571780
O           1.05726782075346   -0.97924760295089    1.85109038915546
H           0.89418956093409   -1.42265362608436    0.96869874624949
H           0.39543310353580    1.84563628851302    0.66820947297013
O           0.68980087777625   -2.20789811994476   -0.40680377601694
H           1.24144074754840   -2.99174306087085   -0.40240225413840
O          -0.82548520723447    0.77501796976096   -2.23973791860740
H          -1.32399459929866    0.81290330798899   -3.05657456988881
O           0.19985833207961    2.66998432193997   -0.65630964803416
H          -0.47049850181022    3.34549811412448   -0.53507849120533
H          -0.16011452387025    2.02188014405558   -1.29959066485045
O           1.65232478694240   -0.45097688384011   -2.02103561728843
H           1.08496345542183   -1.58579784059600   -1.10018859180723
H           0.87089952929309    0.07931361756670   -2.25285501390243
H           2.09252157890804    0.02580950260467   -1.29296923361730
O          -1.85273218386649   -1.10209881658831   -0.77459853201398
H          -1.10964039478380   -1.71669751633640   -0.70104585249324
H          -1.26696765320843    0.07335955369644   -1.67237530651270
H          -2.03602181395611   -0.81878533485580    0.15427842509874
N          -2.02300982867270   -0.41780977940655    1.83667585167678
H          -1.69950212073444   -1.22018420469964    2.36364695657404
H          -2.84458122846265   -0.05284287286531    2.30201225873612
H          -1.29014365931523    0.28350999829908    1.89595570696044
