    26
        -50.47163766  Gyration_radius:  2.3710917718 Dipole_moment: 7.012
 S           0.20034106402700    1.48222501732627   -0.35995824223194
O          -0.26771316826012    2.21984514035986    0.80450196549271
O          -0.92139432907361    0.83874190861000   -1.05206774990752
O           0.87397786808540    2.46963673633336   -1.32275991938515
O           1.18562349649838    0.46789485286381    0.02899776017386
O           0.14194200343777   -0.91702903535220   -2.77559753935714
H           0.23607102820439   -1.66282290106238   -2.16783418907317
H          -0.38610039796713   -0.25544301298710   -2.28888870740940
O           0.12017299195853   -2.00230505334000   -0.09834599870424
H          -0.82606762515849   -1.86785526921386    0.02817015435691
H           0.51037442712578   -1.10766146228652   -0.15030432148890
O           1.23408217097114   -1.00374666679897    2.28522225564841
H           1.53953361219983   -0.37994353311443    1.59980040209586
H           1.01295266248255   -1.80268255999251    1.78274114195829
O          -2.39395102080437   -0.66880679555419    0.43343816173048
H          -1.88681765432974   -0.06579254353389   -0.17784392728429
H          -3.30190169630309   -0.64973663722015    0.12737974278895
O           2.25925569090384    0.66840767319722   -2.50069943559981
H           1.55921211270214    0.05149877399705   -2.82474431071906
H           1.45146820815610    1.88200366053034   -1.90140446278027
H           2.53409798905629    0.31158205647760   -1.64836744046778
N          -0.99235596432644    0.39416234361015    2.46998558390683
H          -0.69474862277934    1.24265931825346    1.87542280054803
H          -1.36033573828158    0.68044102194613    3.37069462176872
H          -1.70210165118614   -0.10637972764994    1.89672069753842
H          -0.12561744732396   -0.21889330540564    2.56574092639570
