    26
        -50.45098307  Gyration_radius:  2.43008624102 Dipole_moment: 1.554
 S          -1.49228895187698   -0.71939057019738   -0.53148148027597
O          -2.33124450834694   -0.59189403162404    0.62562034644736
O          -2.06050625456756   -1.20400807781089   -1.73765186494753
O          -0.84776981225531    0.65913542683119   -0.82801654540935
O          -0.28859761355484   -1.63405647001503   -0.17324709212298
H           0.04707847501315   -1.42982456186905    0.75224375449819
H          -0.70592112445877    1.22314524659618   -0.00856625080295
O           0.76527931963638   -1.03985364173775    2.09854326172183
H           1.38857160038113   -1.71680244799300    2.36811026864512
O          -0.45941462746143    2.15332839972077    1.22989021839190
H          -1.01706878928549    2.93238872135106    1.19587998819558
O           2.04789431626932   -0.49171517888803   -1.39956244918435
H           1.72654533545623   -1.34686170084039   -1.10266452223165
H           1.44273766657650   -0.25783146048565   -2.14535041902106
O           2.04085630795627    0.83703728176401    0.91248193125310
H           2.12136532334047    0.46055920507709    0.00288142719500
H           1.41308084799116    1.56700892230182    0.86349674062174
H           1.32095968119819   -0.27654691952718    1.72470568024468
O          -1.43146552125779    0.45054743213148    2.91178262101259
H          -1.98265874612180    0.02912633800906    2.22420477214181
H          -0.68516802429229   -0.15244081022560    3.03274310578577
H          -0.81135098665952    1.58356882110543    1.98163677281415
N           0.17969574788909   -0.26877339398808   -3.34353452568287
H          -0.07428205484798    0.68363699067308   -3.57438053022472
H          -0.61946529293235   -0.67948951500435   -2.86606956626233
H           0.31313770615442   -0.76999399534451   -4.21369563275147
