    26
        -50.44707825  Gyration_radius:  2.51055960255 Dipole_moment: 4.737
 S          -2.30820141930520    0.36190687359952    0.69940243882564
O          -1.74173335065855    1.40862481739948   -0.11481505182761
O          -3.71134156919943    0.35023763633532    0.86782104187785
O          -1.80066424637338   -0.99622189258265    0.11118779131853
O          -1.63372843121827    0.38079401626670    2.09553640847846
H          -0.66947632691845    0.16254606160693    1.99040465265020
H          -1.28231446979851   -0.75779487403872   -0.73349733632410
O           0.83932640352348   -0.40302283216001    1.84520735987864
H           1.25153850576408   -0.47450270348136    2.70800789134596
O          -0.49173842976706   -0.17547383248382   -1.89965555645237
H          -0.98854945554629    0.65083974290779   -1.91045575767194
O           1.48562935672748   -2.27814538635884   -1.46397230531328
H           0.79290043744352   -2.06260007365262   -2.09546639021721
H           1.95569912820816   -1.45097225065297   -1.29633157600968
O           1.72569555252585    0.46279817037805   -0.63063663210618
H           0.38467057018646    0.06250340385388   -1.48429548075927
H           1.54300812676736    1.43598623918448   -0.62705875186502
H           1.55418965479782    0.18694364573459    0.28430775857489
O           0.27043406010377   -2.72837984252706    0.90121570099980
H          -0.65408241175924   -2.57294425408797    0.67256944199833
H           0.76264112250296   -2.74460802153356    0.05045265553507
H           0.65724766983346   -1.34983453986749    1.53773512149882
N           0.70100624683527    2.93045396678743   -0.42225356702665
H           0.94328093021991    3.47921643255250    0.39345237889174
H          -0.23593216613350    2.55684102678043   -0.26900652570950
H           0.65049453131571    3.56480845991093   -1.20985573077295
