    26
        -50.44707819  Gyration_radius:  2.5105771982 Dipole_moment: 4.737
 S           1.47663359321150   -1.91070041706301    0.34082134756252
O           0.61990899155899   -1.99508846052866   -0.81608084006745
O           2.56261316586410   -2.81180604593760    0.41834567778172
O           1.96768076729833   -0.42809437101895    0.43542757136673
O           0.61611108981191   -2.04778849844922    1.62337058031359
H          -0.00489450321418   -1.27327563393924    1.67892394050539
H           1.61109082185454    0.03750996329738   -0.39828815905527
O           0.91627609971402    0.54754550023767   -1.65574483912878
H           0.84949293694339   -0.32795993273913   -2.05415788157333
O          -0.85542111309790    0.08793264990720    1.88010699424213
H          -1.33709312609709    0.05906760762027    2.70872444326939
O           0.42620797601439    3.05005509672671   -0.23401487964548
H          -0.45037456533669    2.68854802367304   -0.41918690985092
H           0.99842118296310    2.72160938632332   -0.93390823706971
O          -1.49212330358217    0.95438577209730   -0.67132004047985
H          -1.89462846266097    0.16012927307453   -1.10450040081394
H          -1.40586352160261    0.69690350520317    0.26083500988246
H          -0.00821742516946    0.75119673373912   -1.33786638920512
O           1.11601552793087    1.73606181609772    2.01785028104196
H           0.92401622286235    2.36695209759067    1.28882375177630
H          -0.10940633195875    0.75970102745530    2.00800857337317
H           1.81583876155198    1.15656165486436    1.69287622788719
N          -2.11000941842242   -1.47340058732651   -1.62366965005818
H          -2.24798598066745   -1.64874226952335   -2.61136447423880
H          -2.79531550397632   -2.02285955771448   -1.11999296424510
H          -1.18897389179859   -1.83444434365991   -1.37401872355016
