    26
        -50.44707824  Gyration_radius:  2.5105514722 Dipole_moment: 4.737
 S           2.03771888561819   -1.18149229683049    0.63198019813019
O           1.31669106525914   -1.75126390738921   -0.47930019680377
O           3.36642683871329   -1.61492430143734    0.84172932501891
O           1.97227042714857    0.37305440422115    0.46693853690384
O           1.22479564269048   -1.40206997507142    1.93386267117425
H           0.36926694871971   -0.89980111824485    1.86844154328039
H           1.51122159443452    0.53930085864469   -0.42681818139822
O          -0.91337275881243    0.08599387051649    1.85225039290141
H          -1.38974765988440    0.02459325985070    2.68215208353283
O           0.73690740775287    0.55792301165794   -1.73991244152364
H           0.99962573533808   -0.33700016745019   -1.98446009126912
O          -0.66272949736314    2.92147688739191   -0.75203568240061
H           0.01839148601074    2.70644351647376   -1.39621131098471
H          -1.34761343880445    2.24851539054222   -0.85850571889964
O           0.34563155543762    2.32343829598571    1.67678605028348
H           1.21796320527632    1.98409617705017    1.44211471883832
H          -0.02360028075253    2.71748019738519    0.85537456375661
H          -0.45716407815458    0.98932762029750    1.85241470578201
O          -1.70157954374973    0.24138757961238   -0.79728252536362
H          -1.77989924326117   -0.70342096200970   -1.08309887739583
H          -1.57136603109069    0.18755756830337    0.16333209073529
H          -0.21315952959035    0.47022833716952   -1.44510279825892
N          -1.38492254471217   -2.36922858597061   -1.31402859635158
H          -1.41007293769760   -2.74257744434275   -2.25490599969544
H          -1.85430717044958   -3.03420462785583   -0.71177893151997
H          -0.40737608806703   -2.33483361846628   -1.02393551846038
