    26
        -50.44707819  Gyration_radius:  2.5106398609 Dipole_moment: 4.737
 S          -1.84045368820473    1.40373652237555    0.76886489399845
O          -0.94487579981666    0.94418829811281    1.80141232530298
O          -2.72135389257775    2.46146280429207    1.08925217083348
O          -0.95741550130520    1.76290012241388   -0.47175688190647
O          -2.66676567723231    0.20320819707502    0.23959304709562
H          -2.05062421368185   -0.44622252940268   -0.19296826027626
H           0.00907130240612    1.65182638599391   -0.16763299315240
O          -1.08264132114697   -1.38962361596146   -1.08205052364031
H          -1.58791997064065   -2.09797226419749   -1.48501421897289
O           1.36094077366487    1.34540211251332    0.46703159828803
H           1.03591460254800    1.44986687564808    1.36875554926470
O           2.21916091531840    0.31265338887296   -2.12550581128429
H           2.36936070177978    1.08727345316572   -1.57543689536138
H           2.25251898774340   -0.44529224172631   -1.52739350021757
O           1.40219152016206   -1.26641250707946    0.13280305090165
H           1.45132627475033    0.35849388642166    0.34423724321233
H           1.21887008833478   -1.47508884106312    1.08325354152764
H           0.56221501466637   -1.45385116260098   -0.31657874323165
O          -0.38134849642482    0.35541691781603   -2.83845175747094
H          -0.68922138941515    1.15096499104625   -2.38735939136664
H           0.59870683312744    0.36036116501390   -2.76175461032428
H          -0.83600615777081   -0.75481084462257   -1.83060518111866
N           0.47352517182101   -1.43515690636206    2.64110663308476
H          -0.11868207806497   -0.61557693750136    2.50476867330100
H           1.05824664647685   -1.25702938037219    3.44839322321976
H          -0.13474062658356   -2.21071788979385    2.87303682820537
