    26
        -50.44707822  Gyration_radius:  2.51064769043 Dipole_moment: 4.737
 S           1.48687315594344    1.03240060551356    1.63479969884411
O           0.57233837374817    0.05293580930914    2.16750164654826
O           2.57260672108179    1.42548456470231    2.44958788955212
O           1.98654778133455    0.48539728898723    0.25667330646724
O           0.69198402538437    2.29465827567380    1.21164573176501
H           0.07610675165025    2.05309040165543    0.46945903135496
H           1.58970832346845   -0.44920755374382    0.16723606301823
O          -0.76005571350223    1.71193485803873   -0.87287758135902
H          -1.20014877089750    2.49915636062372   -1.19857993238040
O           0.83404827038188   -1.77278408551268    0.20390704190945
H           0.74472328508346   -1.77112383606002    1.16399370883580
O           0.42255940269161   -1.48956380731487   -2.67277390638901
H          -0.46329797952974   -1.47041875635092   -2.28782214402439
H           0.95808630791064   -2.01625584405760   -2.07202571319730
O           1.22016954858328    1.07080408521481   -2.38610902445674
H           0.99386589485715    0.15584805750484   -2.66534959647294
H          -0.00686783632102    1.51851913328037   -1.52050630801328
H           1.90150146875364    0.98291813020929   -1.70845357469076
O          -1.52127042419184   -0.93882742647306   -0.62812441590859
H          -1.38904626850016    0.01174938285707   -0.77500093878104
H          -0.07278968596067   -1.52676695772496   -0.13416856767908
H          -1.94728536739539   -0.98768736644278    0.26439998539942
N          -2.19323337857067   -0.77579850365356    1.96121344795767
H          -1.26193594404563   -0.44057514397632    2.20866353174642
H          -2.38115338820194   -1.59567062987030    2.52493578962497
H          -2.85403455365940   -0.06021702239750    2.23777486033089
