    26
        -50.47068158  Gyration_radius:  2.43140428841 Dipole_moment: 3.175
 S           0.79258703859430   -0.43956807822426   -0.11047685305291
O           0.85705701935625   -1.87959285118019    0.47071656687244
O           0.46320205307662   -0.63125546502316   -1.52325050066067
O          -0.28874106218846    0.26746715693118    0.58776914492624
O           2.05731036953576    0.23162411994462    0.08784789864819
O           1.58942848381162    0.98583273193716    2.57279343708805
H           1.92182548739046    0.84758786241986    1.66050455442784
H           0.64701030568706    1.14856636366568    2.46650716662747
O          -1.63316393637688   -2.24474720022843   -1.08185938361854
H          -0.80988304122869   -1.78222518050177   -1.32462697827785
H          -1.38451600527011   -2.83984681536843   -0.37170831046545
O           0.38299131283610    2.53394808610109   -0.60491537800181
H           1.33170437614033    2.40703206557811   -0.69193341318224
H           0.09626876072737    1.81675967296333   -0.00438013968227
O          -2.74133565682284    0.13969408081161   -0.47920790434248
H          -2.66964890088933   -0.80253023199953   -0.73259215723535
H          -2.00259495287326    0.25308358870810    0.15124198919342
O           1.76821871718488   -1.62235481932483    2.87561143017911
H           1.70888332258304   -0.63575849705602    2.95709157908475
H           1.17799009415883   -1.83610687256249    1.41888143129335
H           2.70434468514565   -1.83387227025694    2.87613079757812
N          -1.21225399878249    1.20790900349652   -2.28334662407743
H          -0.73370960981122    2.01815154335347   -1.83508096516136
H          -2.01952893453440    0.88207144975019   -1.64426476217581
H          -1.49573687530349    1.38698411676593   -3.23985193464930
H          -0.50770903219045    0.42114644930399   -2.19760067133696
