    26
        -50.44551805  Gyration_radius:  2.51919269677 Dipole_moment: 3.367
 S          -2.00193254184518   -0.56347764033439   -0.05452013662981
O          -1.10789172226897   -1.34705676670305   -0.85307539185576
O          -3.38982592332283   -0.83110547827083   -0.09942449244899
O          -1.53902009073265   -0.62866586781058    1.43293840271226
O          -1.78153681890120    0.94295849444019   -0.41427135825968
H          -0.83316106168426    1.09898467798952   -0.73061989824990
H          -0.54137489807678   -0.68517224007232    1.46394638218482
O           0.60029107123654    1.47859536882081   -1.16804934633138
H           0.60701311364888    1.73980419621688   -2.08991869823367
O           1.03295060402641   -0.53841709689544    1.65682177522317
H           1.31974500150148   -0.82752104946759    2.52483739929455
O          -1.78831524747082    2.17052588975554    2.05976015119938
H          -2.03999469795389    1.93558473034659    1.15449884140583
H          -2.07319541390840    1.43364706852089    2.60622857199579
O           0.87832647236849    2.03769405882711    1.58077989654746
H          -0.04252145179282    2.23162665703842    1.85549878669870
H           1.07002631533147    0.46986307405110    1.66579026979145
H           0.91312796867305    2.20086200108476    0.62890972128742
O           2.20200550362219   -0.50299508974619   -0.90314627492584
H           1.87865757371650   -1.23397044557160   -1.48820753085880
H           1.25115815431685    0.69910820520347   -1.08982647083744
H           1.96043257182545   -0.76165841017774   -0.00313252758815
N           1.05898298336535   -2.46291854354091   -2.35008192629910
H           0.17060223819760   -2.22051993738705   -1.91495742354675
H           1.26000948430946   -3.42737131468019   -2.11762022232777
H           0.93544081181721   -2.40840456164118   -3.35315849994841
