    26
        -50.45812152  Gyration_radius:  2.42456507413 Dipole_moment: 3.423
 S          -0.23897707800544    0.68480428618069    1.65055076538756
O           0.47705535332298    1.44915233809543    0.51489156354857
O          -1.19891195770861    1.57256137955493    2.21582786518688
O          -0.93025572268446   -0.49516784568960    0.93923614683307
O           0.73372143593561    0.10037411392551    2.53429409457589
H           1.54349976404206   -1.12783081056717    1.86211921475068
H          -1.43359863429478   -0.16211984422759    0.06222332618940
O           2.07141847787524   -1.79429219877052    1.35218348184785
H           2.75182635622100   -2.10611211488430    1.95111487150498
O           0.32243930781362   -0.97715180758870   -2.24646943400808
H           0.35584935176895   -1.39685834235368   -3.10700890520833
O          -1.90847895931632    0.31020571262369   -1.18490521343968
H          -1.93596260842829    1.29833028260831   -0.99257388029308
H          -1.14672797940785    0.11901290233087   -1.75789856446510
O           2.24723059857645    0.04637628924649   -0.62582695926136
H           1.68787605023541   -0.29029004372050   -1.35209108757917
H           1.24747519477176    0.92492408436564    0.08865520677352
H           2.36463209562370   -0.69180360592652    0.00297860106426
O           0.08336454016728   -2.75377123976239   -0.30672052998990
H           0.88268820279058   -2.65307807902949    0.23580060111806
H          -0.60659865966201   -2.31218564712009    0.20463768743920
H           0.18570846559465   -1.70695613999884   -1.58454127051416
N          -1.92147425959480    2.77410655648190   -0.28115746158890
H          -1.11854244332266    3.32956636827150   -0.54890131187020
H          -1.77384647751169    2.49111729148598    0.68814522760353
H          -2.74141038482309    3.36708609444629   -0.31456403557422
