    26
        -50.44585804  Gyration_radius:  2.49342631936 Dipole_moment: 5.765
 S          -0.63568806054379    2.37617336478002    0.23845124969766
O          -0.10099918017405    2.03672761583450   -1.05668344337812
O          -1.92627536718192    2.96132173882384    0.26076309271560
O          -0.64907059015036    1.05881699450721    1.09490449978131
O           0.39209248225029    3.20692305121077    1.01736635893006
H           1.26259059562141    2.75464740293882    0.81200237746480
H          -1.33273987863975    0.42302995347311    0.68522914460065
O          -2.27760096044776   -0.45875491893671   -0.12983294194037
H          -3.06205151813411    0.07066698091153   -0.29017544072149
O           1.63556985477425   -1.03705734439023   -1.43225570143346
H           2.29520611347433   -1.69810288908839   -1.64244688194643
O           2.31299559595340    1.71514672137183    0.17733086005220
H           2.35506311648874    0.85275300246581    0.61120532877984
H           1.80679699103808    1.58941948714093   -0.63938758032401
O           1.34712365077050   -0.83837940753674    1.23061550777649
H           1.58043537600910   -0.99073363731589   -0.45191627538300
H           0.71606775097376   -0.12376865593215    1.40158933861526
H           0.79047379734075   -1.65052743219485    1.29467285654420
O          -0.83595420495121   -0.25911194593635   -2.24498006027123
H          -0.62946977152593    0.67946317462478   -2.09164119171978
H           0.02055140886976   -0.70262542888560   -2.10114029100783
H          -1.76895854865483   -0.48355239355591   -1.00710891930371
N          -0.58756250743788   -2.73453527475298    1.10437048403274
H          -1.32073864641698   -2.11891908037734    0.76544447301347
H          -0.91139098730419   -3.15153792649157    1.96811783501304
H          -0.47646650200109   -3.47748316269341    0.42550533042207
