    26
        -50.44585804  Gyration_radius:  2.49332888499 Dipole_moment: 5.765
 S           0.06952643129700    1.25589352146428   -2.12758203754479
O           0.81192412529025    1.87057544560889   -1.05547883977742
O           0.78665361810485    0.96965690763288   -3.31594953315895
O          -0.54785901230478   -0.07372565921790   -1.56167428640614
O          -1.20560586235428    2.06399264319747   -2.39924687381662
H          -1.53301827604909    2.30006381840002   -1.48179592517275
H           0.21703303044989   -0.71842703158509   -1.36519723053374
O           1.47445190820421   -1.50285500276007   -0.99222635773077
H           2.04244091398808   -1.47669746017231   -1.76558133353135
O           0.23323954137303    0.77165073916022    2.26836611019629
H           0.04229799859065    0.75010465707512    3.20607879461508
O          -1.59376968511391    2.40073144800075    0.12184103461507
H          -1.92677839218765    1.61349526735892    0.57259958635900
H          -0.63099039136607    2.39611623080525    0.23223095441309
O           2.31358830960636    0.35056593603765    0.57410107489553
H           1.71248102532276    0.43208587579651    1.33758183252755
H           1.88056037373787   -0.85969474902391   -0.32127387607132
H           2.02241802728031    1.06738111908509   -0.01625654215661
O          -1.74759362171530   -0.41608063306382    0.89734336885254
H          -0.52475243168584    0.34246673905798    1.81290178582080
H          -1.54604103888476   -0.32019785733757   -0.04515752692478
H          -1.43009362803341   -1.32705028253559    1.10422852700214
N          -0.40780661334932   -2.76427280106091    1.11127334460272
H          -0.88989766246707   -3.61955253098862    0.86446597922786
H           0.10863176505347   -2.93633311114819    1.96500895625745
H           0.26895955720403   -2.56989322978064    0.37939901344329
