    26
        -50.45488628  Gyration_radius:  2.442156448 Dipole_moment: 6.275
 S          -2.24171412954706    0.28183803480339   -0.18127209870788
O          -1.72177664004344   -1.01807278238334    0.30041999773810
O          -3.65744214474821    0.37265517361113   -0.22021118740767
O          -1.59737114557106    1.36512494610054    0.60056548298879
O          -1.69958705032337    0.45184534006080   -1.64749187242791
H          -0.84252849608136   -0.01467245198743   -1.77226568292679
H          -0.84210097355070    0.77790144535474    1.80028883212837
O           1.97322853792600   -0.62088816765870    1.41183882450908
H           2.85347267972573   -0.65218568045144    1.78768078977340
O           0.55967126002625   -0.83826957205948   -2.22703450707820
H           0.40000389426136   -1.27847587050102   -3.06290852653941
O           0.15859927686205    2.68800573011862   -0.84712757283419
H          -0.22751162400954    2.72508855660747   -1.72448858564670
H          -0.53490868598201    2.29165075024195   -0.27611579946283
O           2.10441586396713    0.86657026963156   -0.69007793931514
H           1.77025958926915    0.30422991696662   -1.40380952954563
H           1.49681415101583    1.64060516398915   -0.68126337698110
H           2.04043265527873   -0.01163839184612    0.60962230818276
O           0.48979501101177   -2.43748543564211   -0.18123256687178
H          -0.40893539092916   -2.10414649373055    0.01231095425124
H           0.59527232915782   -1.55027294005635   -1.52608610293577
H           1.08203661143756   -1.99731641083060    0.44758152303970
N          -0.49444798245918   -0.09668269595308    2.31594516911751
H          -0.75277632586217   -0.12661971391650    3.29497236183079
H           0.52689720665670   -0.23716496609802    2.15662100603871
H          -1.02979847748700   -0.78162374436724    1.70353807908259
