    26
        -50.45488620  Gyration_radius:  2.44223322051 Dipole_moment: 6.279
 S           1.90157241095190    0.45878349657989   -1.14609582001392
O           1.96065566103985   -0.49713657653741   -0.01695792682438
O           3.13376125085112    0.64621393448516   -1.82476969897103
O           0.78469168307903    0.06392269229457   -2.03864936097935
O           1.46836490705445    1.83796481330031   -0.52752753718971
H           0.91387584129868    1.71506453809637    0.27564764856486
H           0.26021085915241   -1.32676309682045   -1.65241180389723
O          -1.61804210476108   -1.70257360746746    0.87016877723259
H          -2.42508750247352   -2.13862314961790    1.14508068858344
O           0.05411921238262    1.72575921357329    1.72938301794759
H           0.45937145291621    2.36049770055356    2.32172524100731
O          -1.24060781618392    1.73445253455036   -1.84813786368466
H          -0.83531480651064    2.59626680128053   -1.73302708956771
H          -0.49562033912054    1.12037601885669   -2.02718826238941
O          -2.20489318742398    0.77230952765948    0.44808211752217
H          -1.99843243124593    1.09198927046055   -0.45945192146043
H          -1.87547829486013   -0.74458505694414    0.68238040747689
H          -1.59924053412022    1.26393495727143    1.02145651039097
O           0.63944911164333   -0.74171451391903    2.29204155318918
H           1.28267726141878   -0.72697894810127    1.55556730736796
H           0.27296738639046    0.81683663999319    2.08369725232435
H          -0.13668273724182   -1.22036233273073    1.96281664408954
N           0.28653327234724   -2.14719246743627   -0.96156669866740
H           0.44730440310552   -3.04709227786053   -1.39806709341881
H          -0.55346906745574   -2.13534577334597   -0.34295015829576
H           1.11731411776309   -1.77600434817034   -0.41124590033327
