    26
        -50.45019014  Gyration_radius:  2.49746648794 Dipole_moment: 5.274
 S           1.06552655335654    1.19064597845746    1.81426406387765
O           1.69970783755640    1.61064642821720    0.58470954731569
O           1.24544437588047    2.01126130519966    2.95137639790389
O          -0.45280362480046    0.99837597574377    1.49810763489868
O           1.49753666688063   -0.24915638150504    2.15591402859080
H           1.44545558771448   -0.84265562769206    1.34731868545673
H          -0.64440510343103    1.57123508069298    0.67776932529032
O           1.35675144910009   -1.85880584917416    0.14658704053141
H           1.53211707208669   -2.74357210232870    0.47105228848515
O          -0.35769631256998    0.39112166841418   -2.41613045460782
H          -0.40908105438570    0.49853880740238   -3.36656581281838
O          -0.59833736308572    2.37927634572775   -0.61521590248116
H           0.34422710109195    2.57245141165158   -0.51035333444232
H          -0.65477420647118    1.70985783091372   -1.33199850315099
O           2.11382284192782    0.13315658747406   -1.61613100460795
H           0.61212971190690    0.28054852396538   -2.19473141817955
H           2.13072078393775    0.76836624492975   -0.87539425029850
H           2.12451858253818   -0.73405740307820   -1.18743287151746
O          -0.99241261570219   -1.83245021750943   -0.87847812806741
H          -1.64043823023463   -1.57358420585666   -0.17769326544821
H          -0.94555133620135   -1.08162843627951   -1.49287350509571
H           0.41891250395433   -1.88051617848506   -0.24528731309006
N          -2.61017734238449   -0.96346162918072    1.10470133032368
H          -3.45282320018117   -0.47940112355361    0.82124622702039
H          -1.97154982161760   -0.27168879209798    1.48719524686212
H          -2.85682086686183   -1.60450424208509    1.84804393728895
