    26
        -50.45877751  Gyration_radius:  2.39784265918 Dipole_moment: 7.458
 S          -0.72106189316018    1.69892032629004    1.23360125766829
O          -1.60836022119450    0.40428740956750    1.34881671459041
O          -0.50969534906425    2.28522158688215    2.51321306490374
O           0.54561161402659    1.24613131347025    0.60515703933951
O          -1.47008139729341    2.49499662583641    0.25668576366440
H          -1.63445847539982    1.46494951303043   -0.71298981816406
H           1.52048482696523    0.15847557894421    1.22754623648742
O           2.07457864036136   -0.61484726825748    1.51687182490983
H           2.65470841642368   -0.28490747855975    2.20394061334325
O          -0.87452969072494   -1.90369748528507   -0.70901132979364
H          -1.11933502228772   -2.70852229943106   -1.16689115968344
O           1.03195501665571    1.19850206109728   -1.90823417265934
H           0.89502077099318    1.28264384441359   -0.91951020557833
H           1.46599177702526    2.00657034040506   -2.18378412908372
O          -0.34710384898715   -1.75003479763043    2.05850314380758
H          -1.13892098548180   -0.34439434565786    1.80459061301912
H          -0.59614966537072   -2.07207682045309    1.17905256515707
H           0.59239215055764   -1.49768552966112    1.99176790850605
O           1.66255409855837   -1.41544609371175   -1.11761774462328
H           1.63661904404277   -0.54319670916442   -1.53983717668948
H           2.00275763886552   -1.26372176970607   -0.22120854601964
H           0.09930502015046   -1.76517402428404   -0.88341244704630
N          -1.58125779361830    0.66080048306433   -1.48152744651614
H          -2.38063931988717    0.69511843855481   -2.10511669438139
H          -1.51350573435880   -0.26296384307809   -1.01080634477569
H          -0.68687962778088    0.83005095332236   -1.97979952038645
