    26
        -50.47356251  Gyration_radius:  2.43484946091 Dipole_moment: 2.294
 S           2.11274589881185    0.52322427137206   -0.13246427199327
O           0.99774880739668    1.45548633710898    0.01302759982550
O           2.39612062194674    0.23883283731281   -1.52490748730813
O           3.39285887783343    1.27746930510114    0.42328873827412
O           1.94827194452080   -0.65425569275718    0.68678844049412
H           0.78136684099152   -1.02699244244654    1.68676190321758
H           3.62523012692475    1.81583136744387   -0.32553553150319
O           0.01645813118397   -1.27169633710376    2.27240148997946
H           0.37936423037839   -1.84096710934337    2.95216232432462
O           0.35117935383457   -1.27940418255769   -1.96115366577266
H           0.64540454959837   -2.01204155151108   -2.50567967280550
O          -0.77808779413168    1.27789234639663   -1.95116946042964
H          -0.06498350899168    1.50425816274039   -1.31575442553879
H          -0.50652170351349    0.42309916306037   -2.31515558827286
O          -0.83306661074573    1.32059890802944    1.93784712759806
H           1.16117985361207   -0.74266217141033   -1.77251186872611
H          -0.60294736161608    0.45818542739141    2.32207550401664
H          -0.09665475721166    1.51648007887327    1.31977246681561
O          -1.43086523249013   -1.92010630651032    0.03919803599803
H          -2.18965153316329   -0.51684047706172   -0.00101841501129
H          -0.76210524848807   -1.79945066265221   -0.66073425726659
H          -0.94439507415206   -1.85347183173213    0.88179218090115
N          -2.39901869705513    0.52560672205528   -0.01504789093465
H          -1.91059979875909    0.93935519693878    0.83854882177205
H          -3.39184456602127    0.72413559719353   -0.02675866843151
H          -1.89718734060628    0.91743304424894   -0.86577342921897
