    26
        -50.44375207  Gyration_radius:  2.55158226392 Dipole_moment: 2.383
 S           1.72018673969890   -1.04072178356117    0.68393928066441
O           1.22460081564556   -1.47754717319002   -0.58944265159654
O           2.96593389466800   -1.53593118519589    1.13527606211679
O           1.77946422409900    0.52635809629147    0.63973737848017
O           0.65354721428775   -1.30369499037874    1.77739404342217
H          -0.23520045607007   -0.97045114313671    1.47077097978533
H           1.18653722546587    0.83889708314904   -0.12443347364917
O          -1.65396585747238   -0.31463098065843    1.12390337173731
H          -2.26449533232445   -0.48788445067569    1.84267952005703
O           0.31056423978565    1.38067239776018   -1.26080766548718
H           0.84255078415253    1.34728494530754   -2.05737999605335
O           1.07327650443510    2.24532728331060    2.66139559047380
H           1.48904845840606    1.57143041654855    2.09982490185575
H           1.74783272398862    2.89531503466009    2.86352710874404
O          -1.12316451365909    2.22605090268018    1.05873572712102
H          -0.42251425668045    2.35820370894911    1.72511739318453
H          -0.70108031695186    2.31816411191399    0.19576630718489
H          -1.50460130415088    0.68032553082812    1.11829958776018
O          -1.70935957123009   -0.15242289442775   -1.67667925792686
H          -0.49096529243311    0.78122051499902   -1.44547374299793
H          -1.37060785619284   -0.98173615995133   -2.09770413890155
H          -1.92242262686703   -0.39004443722318   -0.76417825412735
N          -0.58596216244471   -2.42651868705129   -2.58485750777497
H          -1.00129849227464   -3.32045951406971   -2.35479184038837
H           0.17705119019299   -2.26359759323776   -1.92968104064516
H          -0.18495597612105   -2.50360907367754   -3.51093767302339
