    26
        -50.45260102  Gyration_radius:  2.4977521404 Dipole_moment: 5.349
 S          -1.08763321829316    1.16744315003018    1.66141610596357
O          -1.70998026882366    1.42155413969579    0.33667433632684
O          -1.97317461643531    1.40269100886346    2.74875402153069
O          -0.53114007604661   -0.20626066670127    1.64301533169766
O           0.13201635517016    2.13529848935085    1.77676106471717
H           0.75905643032108    1.92968610306249    1.04811665268823
H          -1.64492639210300   -1.01729767532182    0.87189400974498
O           1.79314470627929    1.72615937716904   -0.27053545108797
H           2.11925605399533    2.58630025595348   -0.54126516805981
O          -0.57329997247664   -1.67438887984031   -1.82250104187967
H          -0.37292796385898   -2.33232355358877   -2.48853016781132
O           3.27666684247901   -0.53316890138783    0.13118328513845
H           2.83229132405653    0.31745457634561   -0.04010177995969
H           3.64756455019668   -0.47302744807774    1.01315878888381
O          -0.18822481750579    1.10392192054396   -1.79354023024844
H           1.09724608520331    1.46484201559442   -0.94850773146442
H          -0.28894756673959    0.15299797676086   -1.95744954409421
H          -0.82916300346433    1.32440970315670   -1.08006532472247
O           0.96441142821448   -1.93665702867074    0.22260885970082
H           1.86351477329888   -1.56624346262962    0.11140140718972
H           0.52192224398282   -1.34514591227987    0.86054519656046
H           0.08943712180897   -1.81609347416533   -1.07328365447799
N          -2.35603402832689   -1.01348908524668    0.07383455956011
H          -2.40862895408916    0.04903759596094   -0.01366782455299
H          -3.23813594383221   -1.45704821152135    0.30140406999108
H          -1.89431109297269   -1.41065201305828   -0.77131977133075
