    26
        -50.46412569  Gyration_radius:  2.3999524383 Dipole_moment: 4.121
 S           0.44043151484307    0.91049866490619    1.47174532162943
O           1.19955826333469    0.85186125241578    0.22511008334930
O           0.32817209749760    2.25920338550715    1.97582821639417
O          -0.90349438852460    0.32097626629531    1.27934638131399
O           1.17419500919031    0.01706265563359    2.50912927504476
H           1.24419372139453   -0.87759635803291    2.08550569279488
H          -1.70635561928677    1.55852622990289    0.65157714873625
O           1.17672633696072   -2.35094616668385    1.33451125139176
H           1.11940069126286   -3.02711788952122    2.01190318716114
O          -0.43273516841898   -1.00263721034356   -2.33215386967197
H          -0.42676126525906   -1.38122796429785   -3.21216657503810
O          -0.23406925829021    1.70648298264536   -1.80998879828559
H          -0.50434931942726    0.82636995392671   -2.13210912167724
H           0.47656313861881    1.49457183154653   -1.16345172484134
O           1.92953789218682   -1.26363679501335   -1.19008219693477
H           0.48978091433584   -1.11951351925546   -1.97548905039544
H           1.83055645916650   -0.42380203844926   -0.69622149892674
H           1.94841931596846   -1.93825075058569   -0.50178640985196
O          -1.13108736893616   -2.05523914146274    0.16682473272891
H          -1.20608765937803   -1.19163399021938    0.62491567123528
H          -1.03256322006269   -1.82286245236681   -0.77052779671061
H           0.28474556819958   -2.33697480012799    0.87563622770425
N          -1.60096668045566    2.52603964310511    0.22973037007986
H          -2.44562994216467    3.08737922817913    0.21245166108763
H          -1.15936655301939    2.33828091524301   -0.73822596175548
H          -0.85881445976405    2.89418607702971    0.86798776341986
