    26
        -50.45168966  Gyration_radius:  2.43176841449 Dipole_moment: 1.669
 S           0.75921516799573    0.45431903067251    1.58094366313601
O           2.10642246777805   -0.01672074565134    1.42507231007563
O           0.43480887060719    1.22963878803933    2.72362537247311
O           0.39062645646096    1.28470009457345    0.31859731163198
O          -0.20518411479082   -0.75565642096297    1.54122011623119
H          -0.00989250021280   -1.37670274451304    0.77421559561784
H           0.91027813728631    1.00391985146769   -0.49452666177620
O           0.14192386510121   -2.29596725685756   -0.47936426935430
H          -0.45521818116205   -3.04332404565770   -0.41377503107343
O           1.71296661398463    0.61240768044437   -1.79779596381641
H           2.39502071231020    1.26193834311549   -1.97725666350026
O          -2.19870246875222    1.26162410456686   -0.84381889729829
H          -2.33614290619367    1.12449209809092    0.12712799673512
H          -1.58924208169653    2.00124471709714   -0.89262964425292
O           2.78753667839363   -1.46704690331584   -0.70521200400947
H           2.19064019263511   -0.21986469438421   -1.49303726742126
H           2.76998178265896   -1.03614573317240    0.17164877661268
H           2.05184693610583   -2.09472470537646   -0.69444783551271
O          -0.81754320618519   -0.60348470713386   -2.14443828086336
H          -1.42379774980237    0.02692906356742   -1.68197844522957
H          -0.04265826440763   -0.08668745441655   -2.39526838354312
H          -0.25442728107417   -1.68035880532886   -1.18206769538876
N          -2.35253562179169    1.12447723452661    1.85564861920742
H          -2.97374311146902    1.77886526205325    2.31657289203399
H          -1.40633296448703    1.31577304373524    2.17438127962401
H          -2.58584742931826    0.19635487495961    2.18656313930576
