    26
        -50.46412574  Gyration_radius:  2.39980183861 Dipole_moment: 4.121
 S          -0.29513141477243   -0.41898758550195    1.70981763069218
O           0.65830602702479    0.56866689561403    1.21046319127344
O          -1.06530238544939    0.08488159306483    2.82293900156378
O          -1.19495504859435   -0.85723882945091    0.61959936260232
O           0.51387957025689   -1.67004649539068    2.14946011183151
H           1.03771979099023   -1.94025224766702    1.35125243123239
H          -2.29829221183539    0.30888579923195    0.62714793241118
O           1.75029375597509   -2.37155406315185   -0.07954784290033
H           1.84348447749557   -3.32580500174059   -0.08904730916896
O           0.51876382089635    0.99485184854518   -2.31731993672645
H           0.86481252966484    1.39811167776738   -3.11451804521186
O          -0.54941535910657    2.42824688759171   -0.20737315924484
H           0.03462633135807    1.91334313600784    0.39405507806535
H          -0.35270690794818    2.04448790953928   -1.08240399095290
O           2.48075770680128    0.31373179568057   -0.69292557295076
H           2.63735567940416   -0.63688582362129   -0.66075852122731
H           1.30958604006638    0.78427616595366   -1.74963151707294
H           1.93974831886571    0.49184034195265    0.10375883241951
O          -0.17223464900666   -1.64275279652371   -1.67658948139026
H           1.05092638043929   -2.15091138793955   -0.76405139528860
H          -0.69450535443370   -1.41911197383707   -0.87750385786051
H           0.01087368519067   -0.78478952716102   -2.09203136931400
N          -2.52258228609724    1.27346199096843    1.00614707101031
H          -2.15153386211367    1.14972533095401    1.97635999330510
H          -3.50103955286892    1.53848371028534    0.96941581073703
H          -1.85343508219998    1.92534064883047    0.46328557216456
