    26
        -50.46412577  Gyration_radius:  2.39979070195 Dipole_moment: 4.122
 S           0.17449130742634    0.08896877286806    1.77429719364604
O           0.96725971639695    0.81742771798922    0.78704252614736
O          -0.26094764132413    0.94101337830199    2.85619682422079
O          -0.99101899861452   -0.54966865000145    1.12295208823879
O           1.05957718509508   -1.06059899817647    2.32937854862516
H           1.34491381470136   -1.58189711751329    1.53475850936839
H          -2.03920410337429    0.66500917175258    1.08089784540800
O           1.63925155568696   -2.44588573838156    0.15360769736372
H           1.71692978221979   -3.37109883448501    0.39299998347184
O          -0.11724252688201    0.27843936963305   -2.55668344792676
H           0.00444773964834    0.41886708193685   -3.49656607845829
O          -0.56054106685965    2.31840185194810   -0.74278389333969
H          -0.61167044330542    1.69558380839397   -1.49184804074654
H           0.15929402146692    1.93818641720178   -0.19030986217825
O           2.20397237480315   -0.10211714196417   -1.36561433702395
H           2.35360724076784   -1.01805933194671   -1.10503618350807
H           0.79545817980759    0.16262784452004   -2.17509702840221
H           1.90051457886576    0.33201545244146   -0.54184789024824
O          -0.63615444110274   -2.01546022092829   -1.03601308575435
H           0.78305032381433   -2.36009219774386   -0.36200154451858
H          -0.92050393342893   -1.53853147096977   -0.22792904279162
H          -0.56342994641311   -1.32213484249385   -1.71147525985710
N          -2.14359833344620    1.71193944378214    1.21311887451376
H          -3.09310535786662    2.03979328759851    1.35429207533750
H          -1.63974773760000    2.13145319365661    0.35436061225687
H          -1.52560331047864    1.82581778258211    2.04930294615834
