    26
        -50.46412564  Gyration_radius:  2.39997601405 Dipole_moment: 4.120
 S           0.43514598776803   -0.04018209562655    1.73145233262416
O           0.81626993423702    0.98368077263394    0.76182025386257
O          -0.03236805275683    0.53384956409324    2.97149721717656
O          -0.59870715753729   -0.92911745052681    1.15549094890034
O           1.68513198143469   -0.92363518025804    1.99528447809966
H           1.96846866766404   -1.25464204933002    1.10371595784854
H          -1.93208340338985   -0.08066305125542    1.42316637010082
O           2.25799242447520   -1.85013190222443   -0.41314620786249
H           2.62833320280628   -2.72974244989126   -0.32082342419203
O          -0.61372415266514    0.48136756385373   -2.45435444676372
H          -0.69376014954194    0.73734804669105   -3.37406214372449
O          -1.30045347440465    2.10879744862437   -0.32519181940507
H          -0.42187464672287    1.90565133739276    0.06806200397437
H          -1.30066190987959    1.57725388682630   -1.14299069854242
O           1.88600796689383    0.69422652124156   -1.64275497860256
H           2.32700099646316   -0.15654870013017   -1.53827451214316
H           0.34514792522476    0.60648717129311   -2.21587682522418
H           1.61444864084827    0.93374365929252   -0.73282907041356
O          -0.21260227851030   -1.99914396170374   -1.21981441373610
H          -0.48019010336588   -1.71188721176932   -0.32139309327814
H          -0.44942562253968   -1.25164890696935   -1.79214939971764
H           1.33806777715102   -1.97151595031215   -0.79445621741604
N          -2.30184084616655    0.86973434030786    1.71536242952747
H          -3.26785585491962    0.88447503753475    2.02433641712308
H          -2.08599778560706    1.50209863424816    0.86661994044667
H          -1.61047008695592    1.08014492596594    2.47130889134102
