    26
        -50.45877753  Gyration_radius:  2.39781789985 Dipole_moment: 7.459
 S          -0.72481052031453   -0.50376755630307    2.03699758784116
O          -1.62818467207281   -1.06929509918432    0.87912389267282
O          -0.53123536562922   -1.48115539949787    3.05343132805263
O           0.54846874122825   -0.11408383858634    1.38028145172201
O          -1.44666996559512    0.71375817917473    2.41867507111929
H          -1.60459492237784    1.23810896390317    1.10383926141182
H           1.49913855828812   -1.11465600076736    0.59569006902738
O           2.03901069200797   -1.68063509958246   -0.01832837672984
H           2.60988779029781   -2.20987135226173    0.53973063870725
O          -0.88252149778739   -0.02478255410555   -2.02814542790434
H          -1.12763524407054    0.10913682692997   -2.94428242277327
O           1.08051726452715    2.19279335651530    0.40542813903829
H           0.92625247553658    1.30815955842772    0.84942510155346
H           1.52838446805752    2.73801047919422    1.05307510794349
O           1.66711118579551    0.48012342610165   -1.73391962234205
H           1.99215620234111   -0.30405037151982   -1.26304226461855
H           0.09591426064536    0.16730280662248   -1.96702225923434
H           1.65880306530292    1.19496336333241   -1.07916682298561
O          -0.40469478827914   -2.55082062394572   -0.86524204264982
H          -1.17569917753421   -1.77923148559397    0.35006445857907
H          -0.64107977937090   -1.84735252213680   -1.48845937223589
H           0.53860797889099   -2.41574881330510   -0.65861523306080
N          -1.54598938284742    1.65435025070526    0.07265936509431
H          -0.64042035514168    2.16026374698760    0.04294133389163
H          -2.33306790171731    2.26377364138435   -0.12273253022311
H          -1.49764911019070    0.87470611752086   -0.61240644188584
