    26
        -50.44787659  Gyration_radius:  2.44936159678 Dipole_moment: 2.597
 S          -0.64337291752057   -0.52021131100842    1.64855305993268
O          -0.03686417962548    0.76951632949031    1.80781233201496
O          -1.94704221477314   -0.68532937259391    2.19878152375191
O          -0.66205789121741   -0.86390227171108    0.12967056842900
O           0.29034662530262   -1.61987714118897    2.19410444667007
H           1.16823583873152   -1.51227957240450    1.71433710560962
H          -0.73268796688327    0.03756520622489   -0.37315359695571
O           2.46883292280014   -1.20651557342652    0.86804449569571
H           3.21499418457212   -1.11766716697013    1.46383067142297
O           1.02976186493460    0.33283314412945   -2.58485395220589
H           1.74676106117739    0.46233916647888   -3.20705816531324
O          -0.98089833421013    1.37482434907730   -0.93856270834043
H          -1.87912397398333    1.52159143843127   -0.52682521459058
H          -1.05213059260209    1.29283884421307   -1.89371503740231
O           1.88104118626486    1.11260123623081   -0.05754995163722
H           2.30620522884433   -0.28144935603322    0.48085870329304
H           1.46708677602735    1.02755712920136   -0.93795787871800
H           1.15596432071134    1.27715930327512    0.57171488839275
O           1.20886638598458   -2.12846134046973   -1.48673056352504
H           1.08429136810320   -0.60569064692573   -2.29729714342082
H           1.89044409270038   -2.05393803004432   -0.80601408134664
H           0.37465640649046   -2.03388231811349   -1.00872274685031
N          -3.16897081715936    1.38829222107293    0.53887430252006
H          -4.10712090939169    1.14543917597826    0.24314419032172
H          -3.23263131470292    2.23435715049643    1.09217949443138
H          -2.84458714067461    0.65228942654348    1.16653526779133
