    26
        -50.45061087  Gyration_radius:  2.47892233752 Dipole_moment: 4.885
 S          -0.31614341214517   -0.89134455146149    2.20826156701223
O           1.14456896248828   -0.38923653042159    2.26757367535038
O          -0.93084179332960   -0.66154862519967    3.46293210377843
O          -0.95052836556313    0.03125159011168    1.11457319985184
O          -0.36518048723706   -2.22025696765541    1.66258459196656
H          -0.10106924340939   -2.27728755376407    0.06733835124154
H          -0.53640963858778    0.94571897562834    1.21933036847376
O           0.22359886084003   -2.27791227496144   -0.86767984867195
H           0.23512397413701   -3.19572837893818   -1.14417755170187
O           1.54804583046849    1.50920709395432   -1.05117133487763
H           1.96412095846876    2.08812227281230   -1.69069951080058
O           0.41066484971541    2.18072091165307    1.28707771465615
H           1.03661863064165    1.90417410173656    1.96376425614363
H           0.86669602345905    2.07536113522502    0.42253236601858
O           2.30822130807872   -0.84190279895904    0.07402966257948
H           2.21523324676381    0.02566988961963   -0.36579336681394
H           1.66344551951735   -0.63644983787393    1.41235683036869
H           1.69107101218200   -1.44264848050161   -0.38991824315324
O          -0.25110146634231    0.11503238574397   -2.25820906682305
H          -1.14692877817643    0.41251066914106   -1.97182943843571
H           0.82199009224872    1.01378032089772   -1.54966924037601
H          -0.14753438725704   -0.77297608546523   -1.88314924887534
N          -2.64853737921869    0.79173261275169   -1.18203656128164
H          -3.48577308366165    0.29318406132926   -1.45514542689495
H          -2.88706003436589    1.77027919984008   -1.08359192284047
H          -2.36229120974798    0.45054689475295   -0.26928391589007
