    26
        -50.45109216  Gyration_radius:  2.42432543916 Dipole_moment: 5.609
 S          -0.90129299182767    0.01549478687787   -1.97847331581499
O           0.49930260060838   -0.12042794603968   -2.40537881326220
O          -1.88748267220348   -0.02194555740714   -2.99817828005887
O          -1.15003274049816   -1.27689536730700   -1.05153494368826
O          -0.98325627151338    1.15390186316406   -1.05884937672812
H          -1.70269292498979    1.21658431737901    0.31302723612904
H          -0.36762302328914   -1.33805519539199   -0.49807588287919
O          -2.02750425982437    1.25996244198544    1.25907016018431
H          -2.72421445986173    1.91681734234949    1.27021230837130
O           0.57224911154549   -1.54027574812612    1.27610795153089
H           0.95748124818970   -2.22320407660386    1.82835956731630
O           2.53021551221772   -1.15406985689815   -0.84232910267122
H           1.98470096213795   -1.45579155020221   -0.10598125091563
H           1.93140796747417   -1.07781716928036   -1.60476007245764
O          -2.01163464358117   -1.41228656654851    1.63789380131033
H          -2.14296968006587   -0.44281798349852    1.65871762423146
H          -2.29808681431383   -1.68758702730078    0.75963925249072
H          -0.40469425350883   -1.53879442630928    1.49772154529020
O           0.70335355128488    1.21622431909120    1.62369399992735
H           1.29117924274574    1.48743990959968    0.15969369942989
H          -0.25013947421310    1.40992134365976    1.63484775769807
H           0.76383491523903    0.24662883653170    1.66056915879170
N           1.79682519339009    1.40771270298724   -0.77498524519716
H           1.12600425159484    0.98952791236487   -1.49731920566203
H           2.52308636657730    0.67105080929077   -0.68366959255342
H           2.17198326668354    2.29870187563100   -1.08001896081084
