    26
        -50.45109212  Gyration_radius:  2.42430893722 Dipole_moment: 5.611
 S           0.56695076840377   -0.58923735106794    2.01473188142900
O          -0.86047302611700   -0.92963445368223    2.10868191093938
O           1.37616424195388   -0.90968237599880    3.13557626372920
O           1.09949990695429   -1.48992072595190    0.79135619537911
O           0.67008092521910    0.79108855830411    1.53246581104860
H           1.58803236220015    1.33663539157613    0.40865363529460
H           0.42664854601437   -1.40554566556403    0.11139411069938
O          -0.19076095425954   -1.06175172533994   -1.77944131723244
H          -0.40685018366793   -1.54227633900010   -2.58079060384751
O           2.05322243107137    1.70444966303404   -0.39805662109991
H           2.66829628235840    2.36215533681900   -0.07230236851298
O          -2.49093959550399   -1.49447789604819   -0.04944521201398
H          -2.03316892960282   -1.64244178562246    0.79567918062581
H          -1.80563891350048   -1.50958719525389   -0.72839516740255
O           2.38836924853260   -0.69127000079797   -1.59482414401792
H           0.80314611252223   -0.93838906366099   -1.80324040211275
H           2.41490235581484    0.23635500245322   -1.28428177943791
H           2.55970508105185   -1.22539506161899   -0.81092274059576
O          -0.56338404453458    1.64459411130815   -1.25982790230197
H          -1.40318332639106    1.38926522179741    0.07855206566153
H           0.35283136762565    1.87964347641128   -1.03171006139582
H          -0.51140017427068    0.73920491974823   -1.61023322413876
N          -2.03973212159302    0.98111554936299    0.82956128405884
H          -2.55367070746261    1.70201804277823    1.32334900030867
H          -1.45121016099508    0.38406774260519    1.49561590788589
H          -2.65743749182310    0.27901660341451    0.37785430704879
