    26
        -50.45476399  Gyration_radius:  2.47357088502 Dipole_moment: 6.124
 S          -1.34272955781359    1.57739505074112   -1.09054717273991
O          -0.82432319391606    1.61264513154535    0.30377539062837
O          -1.94303471766317    2.79815768253112   -1.49868152586908
O          -0.24904143865471    1.11495423457791   -1.97333256491240
O          -2.43429076086501    0.45905780029391   -1.09903495292685
H          -2.03251752590911   -0.37410190680697   -0.76727353690595
H           1.14452440291307    1.44891144178219   -1.25710616874991
O          -1.48887555090099   -1.85839486224380   -0.20285375121439
H          -2.22846987506760   -2.41654468507145    0.04047545977898
O           2.27706620448949   -1.01712825636302    0.08432771590035
H           3.05966268889060   -1.55552168506014   -0.03694805225181
O          -0.72027026846283    0.70360639057290    2.78464521030883
H          -0.82725540189818    1.10308881229415    1.89686139173670
H          -1.56362874003088    0.80899152799862    3.22670121135265
O           0.62449334310159   -1.38350268111885   -1.87454901312031
H          -0.13707857956454   -1.83370229239920   -1.48039012372967
H           0.29406950703410   -0.47941352175924   -2.07348548374025
H           1.66735828072027   -1.22714831987618   -0.69129662374834
O           0.13959057863264   -1.65262312406909    1.80895937606551
H          -0.89483988956010   -1.80163667012194    0.60476625117473
H           0.98615462646168   -1.44673638164426    1.38438913487222
H          -0.12894453934849   -0.84039164275720    2.28646756819662
N           1.61582905662921    1.56044755472538   -0.31264085020122
H           0.69756992998343    1.67953429638487    0.23658793282053
H           2.23723084461496    2.35798674967880   -0.25034160749467
H           2.07175059608177    0.66206937619807   -0.04947521512013
