    26
        -50.44243833  Gyration_radius:  2.49234168385 Dipole_moment: 5.218
 S           2.21196449201696   -0.27132797779592    0.30012273263505
O           1.34325950578338    0.67567961341916   -0.36420469796911
O           3.52972299511166    0.17325784340086    0.56344133624143
O           1.48296862874096   -0.73639970199596    1.60211802820725
O           2.23159660719089   -1.57573708454473   -0.50981079410403
H           1.35966176928132   -2.06503065663790   -0.30893362251716
H           1.06975658034301    0.06013960524893    2.04471825312364
O           0.05296310832523   -2.68764786796938    0.16607598915457
H           0.14405985553520   -2.63491949706924    1.12087861713484
O          -1.91284290156822    1.36549065519025    1.08397841086592
H          -2.67687902450551    1.89811289571990    1.31047190033190
O           0.19928435044687    1.18560674135078    2.73243154347699
H          -0.12202865082967    0.89688049656368    3.58931212546770
H          -0.58615185180165    1.27847320947660    2.14676547313219
O          -0.63369732846754    2.36719671008128   -0.96137777928694
H          -1.46324314315256    1.82575218498839    0.32214299141870
H           0.21377670874641    1.95174171213775   -0.71568280369433
H          -0.91113436021193    1.91606097468744   -1.76356565294926
O          -1.85220395447357   -0.99620002094292   -0.46776662700856
H          -1.89649442299325   -0.23708439569777    0.13237963106852
H          -1.43214145467244   -0.68240460551110   -1.29423558932310
H          -0.72464628846982   -2.11142473719047   -0.07453877437908
N          -0.17016663690365   -0.37430773670185   -2.55913044080953
H           0.53436527114290   -0.02846159768563   -1.90681261100526
H          -0.06800007997352    0.14264887875969   -3.42488477532582
H           0.07625018531596   -1.33609562123688   -2.76389285394414
