    26
        -50.45577740  Gyration_radius:  2.44054577275 Dipole_moment: 4.634
 S          -1.62018975737087    0.44997241255934    1.15828189650113
O          -0.17814214156406    0.80823054499046    1.57657754259721
O          -2.42395213977669    1.60131019730299    1.38850866106633
O          -1.51017716219499    0.18783010524120   -0.36875489062010
O          -2.00069545206318   -0.79709825183516    1.76008855963719
H          -1.23037468425888   -2.11079816411501    1.17353804140174
H          -1.42350529701397    1.15167937959034   -0.76011064622210
O           1.95046652430728   -0.54359323188453   -1.35001748325637
H           2.65806445592927   -0.93862046613911   -1.86149458608751
O          -0.63951778372445   -2.83409143029380    0.84835862290541
H          -0.87534439179898   -3.61443742309564    1.35292784739337
O          -1.22464739240213    2.58518305178579   -0.92771606200334
H          -1.65447675001696    2.83117434591005   -0.09770019290498
H          -0.23028993644394    2.63334877399796   -0.78709205092036
O           1.41925638163083   -1.11142818039276    1.22959689285705
H           0.81911740440843   -1.87571474668275    1.13006736933969
H           1.74912043251201   -0.90146855843707    0.32926620756738
H           0.47762357926936    0.01355091821169    1.49870671599609
O          -0.29826456129162   -1.87814024933569   -1.74046936964452
H           1.11979991188030   -1.01706838049161   -1.61499790167768
H          -0.38293450100609   -2.46716989961700   -0.97464871442058
H          -0.92171380365961   -1.16127302673217   -1.55921884080776
N           1.36479082671417    2.33778274985597   -0.43981234647744
H           1.34543727905089    2.17237360776452    0.56010244261856
H           2.08710711854795    3.01736972765649   -0.64033251457166
H           1.62344185030704    1.46109620418026   -0.88365520018731
