    26
        -50.45018973  Gyration_radius:  2.49755648726 Dipole_moment: 5.278
 S           0.53982643329320    1.05383808344318    2.10929945040330
O           1.78443017041558    0.66239356303542    1.48623900775931
O           0.60575950224643    2.01601295926717    3.14311943127069
O          -0.41068858976122    1.52835868585893    0.96321263953972
O          -0.19737972006245   -0.19651096935460    2.62806733768312
H          -0.20484029889666   -0.92342529861356    1.93505265593049
H           0.19442151525377    1.80237017699987    0.19079126902926
O          -0.30244069926860   -2.10435437987564    0.89681027630379
H          -0.87148267412814   -2.78866399227593    1.25279504665265
O           1.14934162501625   -0.34196466893371   -2.16286069177173
H           1.63331113000204   -0.55512494972685   -2.96153290569463
O           1.31808556200611    1.98873043071812   -0.82378261034069
H           1.99554328631371    1.72249069586463   -0.18579143010306
H           1.22468663867163    1.23258509316336   -1.44404975645332
O           2.21325270480410   -1.48097965455643   -0.06882796302298
H           1.60533823059214   -0.82818987613676   -1.41622436012441
H           2.25181134057906   -0.72502260423242    0.54728912672789
H           1.49899363080527   -2.03471339528606    0.27630894019925
O          -1.31919735942210   -1.28599593828924   -1.30936542624826
H          -0.73601726905254   -1.79668968073029    0.03020031282922
H          -1.91561574554807   -0.51995719883813   -1.12124895607829
H          -0.54848890774779   -0.91969573223894   -1.77318806223614
N          -2.78480721355115    0.88831566344019   -0.65282954832484
H          -3.68601285425631    0.75695147089705   -0.21140857188191
H          -2.89272289572343    1.59146478904758   -1.37295470174058
H          -2.14510754258210    1.25777672735718    0.04487946969385
