    26
        -50.45689304  Gyration_radius:  2.42825468509 Dipole_moment: 6.667
 S          -1.44968481867161   -0.60444044522771    1.40647711715864
O          -1.33978003757524   -1.36274763808072    0.14015295169727
O          -1.39180087983772   -1.45358344995061    2.55994436161150
O          -0.13399712595705    0.30438279980516    1.41194342867878
O          -2.52716076988103    0.36185083289753    1.33467332714409
H          -2.49433392148068    0.88655656425138   -0.18824630042228
H           0.58900462634139   -0.34132992043158    1.54854240628894
O           1.10497696259453   -2.00485646420993    1.82687785930063
H           0.25723867354086   -2.06196469961473    2.30912908752705
O           0.10704615547019    1.57530506375927   -2.04200010122735
H           0.33869398632417    2.21959030487492   -2.71184359561038
O           2.81968968079082   -0.16550776161613    0.29119617130726
H           2.77809244606600   -0.71341093821693    1.07939400069329
H           2.25412070057342   -0.61379546222017   -0.37161001367750
O           0.89096007905966   -1.12295959558463   -1.35290583444393
H           0.10767163884678   -1.31631180509082   -0.80452720472005
H           0.69174317958953   -0.30030316218737   -1.81810964424173
H           1.00834663878636   -2.56992426300127    1.05478152725344
O           1.42719771681714    2.13261789111088    0.10650563702377
H           2.12482917117049    1.44271757115817    0.15333318452369
H           0.63925599131043    1.82805877710634   -1.22174219504297
H           0.79046878224011    1.86123531287066    0.78115074627978
N          -2.23763808935344    0.61430928969670   -1.18183437636175
H          -1.41218089671975    1.14279203429437   -1.55412850593058
H          -3.02982169954332    0.63536802862632   -1.81479115342740
H          -1.91293821049885   -0.37364887502855   -0.94236289138537
