    26
        -50.44364298  Gyration_radius:  2.4931782067 Dipole_moment: 5.420
 S          -1.30888508884938    0.96136040479628    1.67339291748569
O          -0.13056329433013    0.52415550005268    2.36807051341340
O          -2.23794490352705    1.78081414828661    2.35769951175429
O          -0.84093541479565    1.66929397323334    0.35028567692147
O          -2.04098888607854   -0.27565621499758    1.09431646225851
H          -1.38920591863651   -1.04025565323083    1.01512639139500
H           0.07540111454227    2.04900146295373    0.49912475190597
O          -0.40526000750082   -2.26719298508764    0.94520745173799
H          -0.50209675418452   -2.74330541106445    1.77234341355315
O           2.21834590825756    0.48139213909169   -1.12646748347411
H           2.86769499439675    0.28041739285327   -1.80091828399621
O           1.56887539093103    2.56737970777838    0.43608408337274
H           1.62880229816865    3.36795092066923   -0.08950469625886
H           1.97950512011882    1.84846264675087   -0.08920377836957
O           1.79626049862339   -0.94418078754463    1.20861980015103
H           0.50314879775608   -1.83724998003328    0.98963762019415
H           2.04675922221899   -0.47024268227670    0.39808837159292
H           1.32375895342252   -0.30061435570535    1.76833241403108
O          -0.16843542684035    0.56559655732944   -2.14485291121353
H          -0.60598285913288    1.09873811098462   -1.46795199549279
H           1.32150789030136    0.46507918483911   -1.57521058040287
H          -0.64252466535649   -0.30330187000173   -2.11952991087531
N          -1.60803346240388   -1.67286891271322   -1.72857330895576
H          -1.92791497379693   -2.31779629744188   -2.44000036195659
H          -2.42240183919855   -1.28537095468302   -1.26587876891321
H          -1.09888668407123   -2.20160605486671   -1.02823731997024
