    26
        -50.45689311  Gyration_radius:  2.42812335164 Dipole_moment: 6.669
 S           1.56023624115251   -0.78176341941459    1.18257051710647
O           1.17563141292991   -1.51314794342671   -0.04524027694653
O           2.96667112666508   -0.51118895742382    1.24102768770347
O           0.80675766745391    0.62048144741907    1.03252631572220
O           0.93931070812645   -1.37522339053463    2.34977876983089
H          -0.51157365321920   -1.84573913378448    1.83554707634546
H           1.28344198326169    1.05884632476966    0.29847534913324
O           2.59005730563540    1.04008857860352   -0.88704531472976
H           3.05413514246301    0.53391462495315   -0.19216220902529
O          -2.55998578028513   -0.28006548292876   -0.17217525403746
H          -3.50703851907059   -0.16568005961314   -0.25835746270049
O           0.05430021447164    2.40819365425321   -1.50316710996909
H           1.00082037287209    2.53703197283213   -1.40044703816203
H          -0.05245626920324    1.49222253891813   -1.83444742555155
O          -0.26795982290296   -0.24691107672100   -1.93651959723156
H          -1.15210810388313   -0.33702767611600   -1.55834219841073
H           2.44162759040543    0.42278052046263   -1.60930190725758
H           0.33198513791559   -0.71824002073058   -1.32864083503315
O          -1.54331896060203    1.95841670857592    0.61863735082208
H          -2.20267460067193    0.61157668971761    0.13957508920641
H          -0.81342900862264    1.63816095596734    1.16536635967998
H          -1.09660731520436    2.32129041441139   -0.17732136236424
N          -1.05554910555084   -2.16838873167496    0.98244454092905
H          -1.44577598841601   -3.09825692922899    1.09069979989147
H          -0.22958915966522   -2.13162510625007    0.30797860717368
H          -1.76690860614372   -1.46974651305259    0.65854050785286
