    26
        -50.44364524  Gyration_radius:  2.40735390164 Dipole_moment: 2.441
 S           0.83465188246571    1.37226330161184    1.00878342247798
O           1.13071481227570    1.69142914034206   -0.36224433066141
O           1.00863533149041    2.37566140110442    1.98768010277761
O          -0.62125477259205    0.83657339390882    1.09623162616444
O           1.67452588550259    0.12852402696085    1.42203320861912
H           1.71334040503680   -0.54427589997359    0.67786359829722
H          -0.91264166107951    0.41701170059477    0.21188842843549
O           1.78819976388957   -1.63269564844166   -0.46738801190802
H           2.69887504264763   -1.88731771893579   -0.62639142463851
O          -1.36326740500891   -0.45710968673258   -0.96080983657070
H          -2.29216270746953   -0.24785503656938   -1.07350282191622
O          -0.42294172895191   -1.41844310779231    2.69915792739646
H           0.49556245882794   -1.35140891706130    2.97187276343596
H          -0.66870531401769   -0.53568226026958    2.38779176788251
O           0.97788208629543   -0.07796036935722   -2.35486485760059
H           1.15268007980217    0.72680393271637   -1.83241013783357
H           1.49433497640496   -1.10595099284312   -1.27839654974014
H           0.01815811674976   -0.19137285131857   -2.29790026883779
O          -0.73836645998726   -2.63814544391078    0.28474105224814
H           0.19106750316268   -2.63422811572046    0.01784716122907
H          -0.73911970001441   -2.36798285039779    1.22499509733103
H          -1.27173206192166   -1.36785573258430   -0.54847129278339
N          -1.65681892663579    2.47612382231453   -1.10279215615644
H          -2.00454476677675    2.88126942374347   -0.24157147115136
H          -1.83820171774265    3.14654443545439   -1.84091684765327
H          -0.64887111235941    2.40608002314828   -1.00322612885321
