    26
        -50.44604382  Gyration_radius:  2.49152056807 Dipole_moment: 5.649
 S          -0.42099278742623   -1.41960098655748    1.52717126250329
O          -1.01057075998055   -1.52847587992981    0.20642122333867
O           0.04648863648482   -2.64247963517892    2.07762514752326
O           0.76126384225507   -0.39485404297007    1.42507276078653
O          -1.36867392551619   -0.68368979166028    2.45499852529531
H          -1.51213944012462    0.23930878431864    1.98694456411218
H           1.46992981761870   -0.78382528448037    0.85374784378121
O           0.53999872851074    1.90497937463440   -0.54779425498127
H           0.49917730235825    2.85030036415728   -0.70329309623667
O           2.39024601256958   -1.43320221470143   -0.33925797618675
H           2.33227579771532   -2.38439921853274   -0.23092991662532
O          -1.63233770538162    1.42533156744341    1.13162025312375
H          -2.27051537321711    1.11499484860103    0.43632643748250
H          -0.78246968202739    1.54216154580363    0.66904742608310
O           0.42840064431802   -0.58648644002335   -1.81390367251268
H           1.73111063931638   -1.17823667145615   -1.05166920229531
H          -0.21257193726071   -1.00895605979533   -1.20743387750764
H           0.39199837699580    0.35478328135022   -1.58226096360224
O           3.15536376242826    1.25952071276009   -0.26481461760004
H           1.46249521990968    1.70606178130431   -0.27910449908977
H           3.12668760400680    0.30537627062388   -0.11008109268443
H           3.64129019089502    1.38570550475857   -1.08252879268407
N          -3.11047991740591    0.20347847554764   -0.74103155354842
H          -3.03541790835459    0.39954016975393   -1.73118380311830
H          -4.07520984743713   -0.02681131109844   -0.54130072416294
H          -2.54534731116453   -0.62052515465437   -0.54238740119798
