    26
        -50.44707823  Gyration_radius:  2.51040408452 Dipole_moment: 4.740
 S          -0.51420489281860   -1.32643297228924    1.98026018884942
O           0.67127357445606   -0.51117170560593    2.07756217286746
O          -0.69009471332851   -2.34381210457027    2.94535917595609
O          -1.76478021681291   -0.40958859829015    1.98159236487028
O          -0.54353001693467   -1.91449068428760    0.53072116279351
H           0.33083982594549   -1.62429185924073    0.09425333851962
H          -1.74741204486265    0.15907895718756    1.16629326224463
O           1.64476528451631   -1.01666835096306   -0.38282438550572
H           1.99342258266355   -0.90459363709080    0.50915824360536
O          -1.83142487210702    0.92124034000571   -0.25863525109985
H          -2.63818818369065    1.43674233713981   -0.31197433448874
O           0.39111409287059   -0.64793110868554   -2.99411476558522
H           0.59388848387395    0.24375123384895   -2.68263610760396
H           1.04472166410986   -1.22331670069010   -2.58567461942169
O           0.79114755981137    1.39425592419076   -1.01050646891012
H          -0.15729563665946    1.36271641042345   -0.80534647756148
H           1.19395998559610    1.83409727807543   -0.22009165723114
H           1.37991193760037   -0.09691350148252   -0.66751959023698
O          -1.96149088688315   -1.15322434069614   -1.77596904885381
H          -1.18974117823623   -1.03499421817530   -2.37319482785995
H          -1.70115600538903   -1.82308106421372   -1.13198346934640
H          -1.95351936269558    0.13605455217311   -0.88525649241868
N           1.62333121339259    2.14319255410592    1.42458330000901
H           1.11657149445059    2.88367985237596    1.89373612619161
H           2.60366112866277    2.25597939149720    1.65159050275369
H           1.31422918241746    1.25972201525223    1.83061765748307
