    26
        -50.46981922  Gyration_radius:  2.46626953383 Dipole_moment: 5.182
 S          -0.48251249983030    0.70111371234310    0.49840571886157
O          -1.85904413297038    1.28875236713683    0.10733843737209
O          -0.35434350613661    0.66679904373269    1.93352988174162
O          -0.43855275781008   -0.67733395325699   -0.06380807832895
O           0.51686940857532    1.51491114476343   -0.17480257454504
O           0.20015482977293    1.76128473121545   -2.77794531044242
H           0.17308399327885    1.80380534340083   -1.79475799202509
H           0.62315809281705    2.57133524705752   -3.06768391002537
O          -2.21097938045382   -2.04650207786143    1.40853856620483
H          -1.59579468104363   -1.61215631642970    0.78665945818058
H          -1.66577683069623   -2.52969660185731    2.03258385546343
O           2.90475762609285    0.29198498586863   -0.49746198335898
H           2.80134252400973   -0.30787617671554    0.26931348712047
H           2.25522266948427    0.99825582125966   -0.32209372419061
O           1.73184959855453   -1.11884552120392    1.47602727542376
H           1.49465267257292   -0.51442724346697    2.18711571458227
H           0.92684109685805   -1.15868410555939    0.93356419207094
O          -3.00874387004879    0.40681297724370    2.22320198094037
H          -3.01648873015660   -0.54841968756647    2.01407590595305
H          -2.13255451737568    0.57154050525465    2.60622869715134
H          -2.48158192617512    1.02348797089021    0.84755668432948
N           1.13182898515127   -0.64852807078026   -2.16175138082176
H           0.82027650674366    0.19477858329626   -2.69522452362535
H           2.01835182608959   -0.37553677527327   -1.62094492453876
H           0.40562263730194   -0.78647348046416   -1.40294939556620
H           1.24236037552094   -1.47038240306483   -2.74471604789212
