    26
        -50.44594638  Gyration_radius:  2.42105867982 Dipole_moment: 3.114
 S           1.61096845999217   -1.07897297669199   -0.19463643219974
O           0.63538534408853   -2.08165876919316   -0.55386290923332
O           2.95274467634070   -1.49075058722785   -0.03018190549418
O           1.57136688363160    0.04825101987185   -1.26344678350695
O           1.13810768037461   -0.37165345051892    1.09616869793547
H           0.12031470747476   -0.33062590808307    1.12405638575273
H           0.63537484972597    0.26412323518774   -1.55487237518130
O          -1.38325892742047   -0.04437348975416    1.11398123197765
H          -1.67663168766366   -0.11151504824404    2.02389836074222
O          -0.81002660285907    0.62646387359660   -2.09237979535075
H          -0.81966924403323    0.58962466735550   -3.05043530089882
O          -0.57188024642824   -2.72187174130700    1.82817829736650
H          -0.09081580111388   -3.42457452250862    2.26676234326933
H          -0.15809598338911   -2.61396734886580    0.95836286294505
O          -1.92082101312880   -1.50973173771535   -1.16848794849799
H          -1.07547523360482   -1.98423553941927   -1.08081516116323
H          -2.13567535342595   -1.24596785508857   -0.26214673982045
H          -1.34246524210876   -0.16927388266859   -1.77328969694859
O          -1.14403953415324    2.33066038870275    0.13780723095783
H          -0.19221721697960    2.52744007927146    0.31820811679924
H          -1.17211484484060    2.04298131010335   -0.78403535068914
H          -1.40097208874940    0.92173174165324    0.83136538627998
N           1.53836102563185    2.51527623776464    0.50356898844911
H           1.96657135549055    2.33322685262591   -0.39685332391150
H           1.69743393348991    1.68856373853175    1.07035768694564
H           2.02753011364254    3.29082969264669    0.93272810345233
