    26
        -50.44707774  Gyration_radius:  2.51065355797 Dipole_moment: 4.741
 S           2.07097151424598    0.36663693492188    1.23453008746098
O           2.23151791309037   -0.02559613076024   -0.14379136918533
O           3.20257487464278    0.27742818718887    2.07646902621734
O           1.51298693253969    1.81200219819947    1.29157109794084
O           0.87619930497889   -0.46560274580607    1.80749074144301
H           0.61070174089570   -1.11685149831738    1.06987956608235
H           0.60733022270338    1.82210691462843    0.88143291665166
O          -0.94267431721633    1.79207394518470    0.41844443093069
H          -1.33372054781590    2.66265829847416    0.51129410892575
O           0.32983514444446   -1.93465266859600   -0.18625179488195
H           1.21531465301303   -1.80986434710022   -0.54691702031070
O          -2.51260169386959   -1.73401433575454    0.45990873605399
H          -1.81660553861396   -2.39725116704856    0.48578248232342
H          -2.41013001083806   -1.27727037713758   -0.38525348004194
O          -1.11980940810239   -0.18258633330554   -1.51550969865733
H          -1.15331383760247    0.58512822201019   -0.92210891924776
H          -0.40479579572702    0.04357553357037   -2.16207498890198
H          -0.25012161968352   -1.32793868950424   -0.72720619823595
O          -1.82769477018433    0.18684134645417    2.22445836642585
H          -2.22325782888928   -0.54105186639067    1.69517689094134
H          -0.98298151019134   -0.14769096380961    2.54971574589156
H          -1.34489110094852    1.22016594949847    1.15014817278772
N           1.14764868321367    0.48364881390976   -2.77952332267812
H           1.68620221183467    0.37764115833341   -1.91957667747292
H           1.25848692489484    1.44161384054970   -3.08803861373077
H           1.57282787938516   -0.11115020952208   -3.48005030691180
