    26
        -50.45564921  Gyration_radius:  2.41821249398 Dipole_moment: 3.083
 S           1.48744585195180    0.89175009092615    0.46419974313786
O           0.83677345022593    0.80349122779665   -0.82094899643976
O           1.98617099959830    2.17812758114534    0.81308997772229
O           0.52422686614389    0.35304688983448    1.53753284122251
O           2.63454443514942   -0.14415753173805    0.51464422180903
H           2.27152101626781   -1.01988635610129    0.20035371792173
H          -0.46836709958844    0.74767407187442    1.34109325069989
O           1.62641296367904   -2.38363191110189   -0.37696287664391
H           2.30359018345125   -2.89612680695029   -0.82218949541270
O          -2.17791710377616   -1.17647252588530   -0.34119837989037
H          -3.05794360034653   -1.54132584124103   -0.23806568185321
O          -1.69459092665142    1.21271470612427    0.90934172310544
H          -1.95965503378354    0.51330600758879    0.27920438647289
H          -1.39036987311559    2.01783124345125    0.39071041044832
O          -0.02329337131925   -1.35536851465039   -2.07437085539883
H           0.98994016700599   -2.06473265361792   -1.09425369184924
H          -0.91104392230836   -1.39714344906185   -1.68359014366761
H           0.29601977641318   -0.46289358523031   -1.83502979866429
O          -0.49410275589213   -2.22416209680339    1.41986842993705
H          -0.15190580330160   -1.40252318018316    1.80112854283081
H          -1.61242983331960   -1.61886273054326    0.34429995844927
H           0.24158248300817   -2.58627519987557    0.90624799527827
N          -0.51060443979000    3.23512787045929   -0.29191909638352
H           0.38965891108372    3.12338135404219    0.16932180578099
H          -0.77167298475002    4.21285330425664   -0.25043126888984
H          -0.36399034579299    2.98425801535084   -1.26207670965284
