    26
        -50.45859672  Gyration_radius:  2.4519409659 Dipole_moment: 8.072
 S          -0.04927068637191   -0.89293248207803    1.83035189031419
O          -0.56035427593956   -1.79354285559912    0.79980227873726
O           1.23453941042280   -1.27013184725392    2.34908735434148
O           0.14206962014687    0.51429915459615    1.08157866962183
O          -1.07106485157162   -0.58371181600665    2.82715824105706
H          -1.94536613503873    0.34263852566384    2.14871671773421
H           1.03835083646698    0.43826037866518    0.68881999984031
O           2.52574318250396   -0.26856636220626    0.25064000184252
H           2.43694204144379   -0.70343019368361    1.11834081100733
O          -0.13226209970740    0.51168169290557   -2.34199238704541
H          -0.29307004466954    0.80088110510019   -3.24112390733946
O          -2.16244341127980   -0.35509066608798   -0.67167526420723
H          -1.51522809404608    0.03082324623465   -1.28816344384184
H          -1.64959837966511   -1.03862804966586   -0.17354165352437
O           1.08884321340444   -1.83718084665821   -1.30235594797076
H           0.49221896137300   -2.04377596504234   -0.55559717551566
H           0.60695420454307   -1.19328172396262   -1.84117525442835
H           2.18352157054485   -0.93847537136261   -0.39571452756989
O           2.12977112199039    1.73883831461196   -1.54419118584285
H           2.85353953887062    1.72389323820556   -2.17339945391569
H           0.63081264084048    1.03452160386824   -2.00743320707796
H           2.40206532023833    1.15713841248071   -0.81185502262774
N          -2.49919726082986    1.02651481155207    1.48583088009609
H          -2.44407884016168    0.53445502169150    0.51655198800338
H          -1.98832146124907    1.90354989399186    1.45318218200092
H          -3.45511612232833    1.16125278007916    1.79815743634709
