    26
        -50.45564910  Gyration_radius:  2.418477933 Dipole_moment: 3.080
 S          -0.14145738866786   -1.21590297499785   -1.31396836933092
O          -1.08021980046638   -0.19828613048071   -0.90658129681234
O          -0.00618653840053   -1.39983609305806   -2.71866838765787
O           1.21712260483358   -0.92016708067444   -0.65291839592575
O          -0.53648971901201   -2.55436098300902   -0.64780337469466
H          -0.68806383476917   -2.38008868808699    0.32389655558893
H           1.41815784963030    0.14367543742846   -0.73459198742216
O           0.51671871265750    1.69535719336570    1.76215696762434
H           0.94723928520958    2.32528356572346    2.34184240713514
O          -0.97446877599811   -2.00604718709829    1.86890924519134
H          -1.64506552362410   -2.59274462912445    2.22322785017524
O           1.49161009843315    1.52169610509555   -0.79231324956977
H           0.89788652714105    1.68346396066227   -1.58669797350284
H           1.00998597682879    1.77848499996648    0.01920754244421
O           1.49674465124914   -0.74580539588276    2.10154167262787
H           0.93305078892360    0.81443416304426    1.95194784162266
H           0.73955632819656   -1.31417387632712    2.30122592600310
H           1.72005063444076   -0.94250530658508    1.18018491821163
O          -1.90911792758314    0.37576482065549    1.53369537859411
H          -1.20798513055433    1.00297654297315    1.77372346188803
H          -1.80992687535923    0.27248637780763    0.56659884052478
H          -1.39319702338777   -1.08750326853259    1.82055010147760
N          -0.06639233962729    1.52041355938880   -2.91547752485088
H           0.01306860228667    0.52414101798259   -3.10742921447840
H           0.07707243625321    2.02503201797493   -3.78185246076811
H          -1.01969360861595    1.67421183179361   -2.61040646410292
