    26
        -50.45859665  Gyration_radius:  2.45205323621 Dipole_moment: 8.070
 S          -0.87129760573247   -0.23635079413045    1.82639926631663
O          -1.81006756987873   -0.56585319500930    0.75659935970064
O          -0.41077466617148   -1.37513092902068    2.56848807116337
O           0.40490733883067    0.37941929132088    1.07154312428009
O          -1.34184759999338    0.89325745241697    2.62385164030679
H          -1.10777980268162    2.03610960465816    1.77416686121341
H           0.93195619420897   -0.41542232473084    0.83962940590147
O           1.33650657271474   -2.06339402872880    0.68506766354622
H           0.87380507523433   -2.13280362079591    1.54005097095022
O           0.50134874643045    0.05816165390813   -2.34786183716545
H           0.69746574730242    0.22049037272804   -3.27147906012687
O          -1.56487812044891    1.33130724276288   -1.01585027903295
H          -0.81413257547250    0.98105843956917   -1.52723705826849
H          -1.81940572348801    0.58890546442396   -0.41383841174823
O           2.79906429513101   -0.78517443261115   -1.22184690015890
H           1.35647672303096   -0.14802566018473   -1.90758142130321
H           2.45619502896248   -1.24310314328831   -0.43345009549577
H           3.28539361733722   -1.44653503091226   -1.71793593339014
O          -0.65666368467350   -2.18139881414699   -1.03250916601117
H           0.65219164444521   -2.31896887712455    0.01419043919630
H          -1.24662319466443   -1.73791892303458   -0.39101054057458
H          -0.41016783282181   -1.49358869769332   -1.66765558384271
N          -0.86504934961730    2.78462438796432    1.00302321672554
H          -1.37706149915793    3.64924821796333    1.14339110513574
H          -1.13846491428932    2.28569465868343    0.07526013265532
H           0.13890316546061    2.93539169509904    1.02659502010649
