    26
        -50.45564901  Gyration_radius:  2.41794530793 Dipole_moment: 3.087
 S           0.58707128692505    1.52839897171662   -0.73656935945867
O           0.48812052067990    0.20979708420787   -1.31472613553777
O           0.21143047963154    2.60321623974031   -1.59029550778396
O          -0.21597030107063    1.54748989403584    0.57665439603041
O           2.03273749299058    1.74374842832758   -0.23114942461552
H           2.29335650936992    0.94130705172909    0.30314473758196
H          -1.15982514876562    1.03450544745554    0.41284091077860
O           2.66077882194028   -0.41384817392503    1.10261595364047
H           3.60094631183776   -0.58702028166487    1.02823604028791
O          -1.02805251553879   -1.93524662524898    1.20008133302725
H          -1.57117790893285   -2.49576568630431    1.75602357455500
O          -2.25724118418365    0.25570168777946    0.10812353578768
H          -1.91882944417983   -0.64302093139598    0.29374843779420
H          -2.28351734344278    0.39292334965680   -0.88706897880990
O           0.35743616159722   -0.20103815363164    2.65147766955224
H          -0.54260341875810   -1.32385926120346    1.81323717367239
H           1.28539119035340   -0.32715908313608    2.40822456842830
H           0.08953031474986    0.61314993390345    2.20099371276415
O           1.29453503451814   -2.09228769752295   -0.30386145168656
H           1.01291687128978   -1.36152456911030   -0.88895164573890
H           2.19306236360039   -1.13948659370376    0.57751890846599
H           0.49239674667575   -2.31092064745608    0.19738480049092
N          -2.01672705753356    0.90166350419446   -2.43329156386629
H          -1.37420323660117    1.67747954321062   -2.28814801984005
H          -2.74925614324852    1.20694436240372   -3.06269779024323
H          -1.48230639390348    0.17485220593061   -2.89354585526979
