    26
        -50.44599997  Gyration_radius:  2.48291924697 Dipole_moment: 3.217
 S           0.88570734477147    0.61394859703587   -1.84769447555911
O          -0.45020761671688    0.08322291949308   -1.74627974120411
O           1.42089633322956    0.80197714192080   -3.14193355245750
O           0.92152401388646    1.95183936070347   -1.04616418499026
O           1.85123665283234   -0.29377090259229   -1.04671140467137
H           1.54065918777739   -0.39110949486899   -0.09457295090952
H           0.08133711932539    2.06400818848261   -0.52759687100389
O          -1.06186256250070    2.44172777058588    0.58639978172556
H          -1.30793772616698    3.36783050417889    0.55053976073742
O           1.15187113562470   -0.55299252878034    1.41076414323156
H           1.78859320028958   -1.12826897888802    1.83890202007908
O          -2.43573804705452    0.00729395480608    0.13258337620446
H          -2.23453274530564    0.87633669426283    0.49944461511430
H          -1.91275102536791   -0.03459845594093   -0.68366890497109
O          -0.94368473826762   -1.92469498966000    1.22020342507650
H           0.26214278576621   -1.09830623755084    1.38496748382260
H          -1.63840840614532   -1.27941687851976    0.95596147576979
H          -0.72975685645319   -2.40962103350400    0.38702490111571
O           0.98362779639178    2.03274292100771    2.17577878099896
H          -0.41686817177340    2.33972317108714    1.33369033400247
H           1.03874723495270    1.06568502655876    2.03707668524522
H           1.71514330674078    2.41186523307267    1.68294104449010
N          -0.18977664982857   -2.75368052318861   -1.24478644142388
H          -0.32700910214146   -1.81186159151601   -1.60789099238548
H          -0.76961414593039   -3.37930710780413   -1.79009581547439
H           0.77666166205382   -3.00057278034573   -1.41888251259034
