    26
        -50.43598133  Gyration_radius:  2.48645627709 Dipole_moment: 6.889
 S           1.56323244097155    0.46287405578160   -1.45101723322939
O           0.51133421667963   -0.47616346635070   -1.73443812084028
O           2.07647760350271    1.20626240235833   -2.54121195355240
O           1.01254798119693    1.44370404801719   -0.34796464755970
O           2.69304709817361   -0.22312089677566   -0.66987246573095
H           2.24464933354300   -0.69772235521903    0.07921262346013
H           0.12279134708369    1.77591335847166   -0.66855127993346
O          -1.01526300805944   -0.24274148130940    1.86804369780889
H          -1.53168220046168   -0.47857075704193    2.64044091708925
O          -1.37014102962124    2.15998397149011   -1.04686567262599
H          -1.43495325559197    2.39437142933147   -1.97430731037909
O           1.46073957177535   -1.23924026756019    1.38654189145678
H           1.95564463037090   -0.99734987852409    2.17216178348309
H           0.54730195561077   -0.90398298476721    1.50793802789025
O          -1.96588049683271   -0.33311999570428   -0.74556980329666
H          -1.15849331298853   -0.59704254429334   -1.22646390040005
H          -1.76067987906224   -0.48212924838208    0.19164965340528
H          -1.75619636888868    1.23283114729390   -0.96068076703280
O          -0.72635666133932    2.38735082544995    1.70137598201477
H           0.19383200812248    2.46511311422140    1.42900510842861
H          -1.24508018797049    2.61924205573173    0.91995584246520
H          -0.93396434473903    0.74469434349946    1.86719398342273
N           0.18940249521613   -3.31874725743130   -0.68652965093496
H           0.72924382775826   -3.05993196778501    0.13107030115751
H          -0.78998261145836   -3.22054820823782   -0.44497587050171
H           0.38842884702627   -2.62192944225565   -1.39614112603704
