    26
        -50.44701607  Gyration_radius:  2.49670619767 Dipole_moment: 5.950
 S           0.13423402660131   -0.29112350611191    2.38556074934726
O           1.64066430459019   -0.51164996343902    2.20181339043230
O          -0.11580644898982    0.33771683419669    3.62977728908662
O          -0.24118773035420    0.67637689611983    1.20699094717014
O          -0.59705486877433   -1.49861044541868    2.09781932062908
H          -0.65007123777746   -2.02719353359367    0.57575475039132
H           0.46754098118037    1.36311691744725    1.04522773393231
O          -0.52922884566536   -2.36946643726608   -0.34668490172751
H          -0.76897088396625   -3.29697681504831   -0.31792446085880
O           1.49550852918400    0.77847622054888   -1.78537764666303
H           1.90843015158157    0.81765586323573   -2.64881801483315
O           1.50535436982528    2.37147234675357    0.38292006847046
H           1.08747125714480    3.20056787625454    0.14142038062584
H           1.63507979856173    1.86646072440297   -0.44672680259522
O           1.97677439820134   -1.36805688073107   -0.16100309432605
H           1.14829802486826   -1.85487204033461   -0.34015595221518
H           1.94781961387210   -0.57655506687143   -0.73334547580701
H           1.83315654438006   -0.89574176578127    1.27460272461698
O          -0.86058871490426   -0.23633480973869   -2.11646757617104
H          -0.79941176155423   -1.07202218382909   -1.62788342896133
H          -1.55936128100549    0.26981429237367   -1.64339891992896
H           0.55738506064464    0.44321400595658   -1.93555055650970
N          -2.68580015599762    0.90610155874596   -0.44962834193754
H          -3.08891380341754    1.83398576341160   -0.47800365262385
H          -2.01370578998813    0.87814309473564    0.31198986723807
H          -3.42761555824328    0.25550104398344   -0.22290837678109
