    26
        -50.44388479  Gyration_radius:  2.44575676099 Dipole_moment: 3.520
 S          -0.14856456295644    1.17609974628587    1.10000563288351
O          -0.54250023239873    1.68624053464086   -0.18520290691816
O          -0.54612011283771    1.90566069676037    2.24464182138203
O          -0.63350674413559   -0.29573633624031    1.27097238847180
O           1.39525575081866    1.00285585664308    1.05262064318945
H           1.59181511920476    0.90830990390921    0.04969097845564
H          -0.01141894545770   -0.98059367437289    0.90314399960229
O           1.01914185061347   -2.15186443602760    0.48527016387259
H           1.04833497451711   -2.84095321648737    1.15155688721444
O           1.76862792992950    0.71281446541372   -1.43711124631577
H           1.29503694653929    1.47977517973997   -1.77153168041928
O          -2.10245757033201   -0.05913859444221   -1.52244667271633
H          -1.60511193646213    0.69847267013830   -1.17217488061836
H          -2.83149284066159   -0.15758175143652   -0.89850065921780
O           3.35664442536130   -0.92212018195242    0.32515611118419
H           1.93394041928287   -1.77106240422289    0.42321472307391
H           3.32480605226117   -0.50418077070787   -0.54346410742965
H           3.23478673493469   -0.21302215084740    0.96550355339877
O           0.22703517444343   -1.27889152606761   -2.04142554239917
H          -0.69003360027062   -0.93509310501747   -1.97631221023387
H           1.21125515764497   -0.07686224232429   -1.73187186977745
H           0.33457426993318   -1.90401651865376   -1.31513290321799
N          -3.25546258746613    0.98452926791362    0.92897164131822
H          -4.01622835446583    1.34089855427691    1.49654521173620
H          -2.68459582836312    1.77968453344362    0.66518086008636
H          -2.67376147966855    0.41577549964541    1.53270005337946
