    26
        -50.45019015  Gyration_radius:  2.4973747821 Dipole_moment: 5.273
 S           0.26527211138934    1.01346528243947    2.17832406980386
O           1.45436386218975    1.31200521699828    1.41200512066667
O           0.01616107598557    1.80230461632330    3.32485471121566
O          -0.94019735217606    1.07350480428214    1.18566154540035
O           0.26553478131392   -0.47504851215449    2.57889221151635
H           0.50575912647421   -1.05929882062904    1.79799323943844
H          -0.63861658479911    1.66332387710098    0.41170944384135
O           0.83262787300289   -2.05785124481555    0.62419613445757
H           0.69976971792362   -2.95620662903898    0.93097293917080
O           0.87185821921092    0.42364765013693   -2.27508009993373
H           1.28593875202861    0.52936580865878   -3.13233270481185
O           0.12554068551016    2.44131443864585   -0.65472061729274
H           0.92787832669076    2.47657387255196   -0.11458527037024
H           0.30883119605446    1.78383853204308   -1.36130596705462
O           2.61509623549236   -0.23478775284589   -0.44699742942957
H           2.29385699969158   -1.08796044174420   -0.12324908149765
H           1.59754569334571    0.15509677675136   -1.64020323185936
H           2.38087995711181    0.39548468439626    0.26045638562910
O          -0.73439479138801   -1.65007145132792   -1.36268467826191
H           0.19415692269494   -1.92667259030636   -0.15612049777389
H          -1.58645789099729   -1.28104579558256   -1.02220255728697
H          -0.29395779622690   -0.92267299857931   -1.83206361500057
N          -2.93597036851423   -0.50708169909187   -0.28972621143460
H          -3.46767387159522    0.10587353095285   -0.89484496367463
H          -2.45160806534829    0.07420415270598    0.38853979015963
H          -3.59219484509169   -1.09130531790493    0.21251134436945
