    26
        -50.44382189  Gyration_radius:  2.44549174626 Dipole_moment: 3.514
 S           1.02448842228821    0.58677055625917    1.12022815931117
O           0.82015121459571    1.59571096244983    0.11747294107660
O           1.53353484503693    1.00853817580331    2.37165265410642
O          -0.29433711764246   -0.19977944114043    1.37983022626438
O           1.93077057569205   -0.50085350197291    0.47716546329475
H           1.75917489271711   -0.38050270413884   -0.52680488265716
H          -0.45859804309301   -0.95231168737599    0.75022317684289
O          -0.71429368965850   -2.30088635227748   -0.10776456650034
H          -1.02726792512104   -3.01512731169226    0.45032593720209
O           1.38235890835416   -0.16851447467055   -1.97679120549958
H           1.55295766277537    0.77316952396694   -2.06761163163852
O          -1.76854843073384    1.84587327072530   -0.58632539999178
H          -2.12931688333523    1.97608011795928    0.30213906327220
H          -0.81424070671176    1.96438024080228   -0.45273994776053
O          -1.20106551624184   -0.33639351615208   -2.02782901246049
H          -1.54554889836236    0.47046583812816   -1.58316950696754
H           0.37870773595673   -0.25152882562936   -2.06517291075961
H          -1.41720064247697   -1.07881037312449   -1.45225203038232
O           1.67832157526928   -2.87609733426929   -1.08198148984526
H           2.24976398380708   -2.51072923644829   -0.39816916442248
H           0.14856564141586   -2.59742316725465   -0.49861596727787
H           1.74933196166792   -2.27724726764803   -1.83496756426732
N          -1.37995877706751    2.33441138118098    2.19786493682943
H          -0.39889265412815    2.35929916364860    1.94279081915251
H          -1.52230988083834    1.45488011415769    2.67999595442973
H          -1.53654827412741    3.07662583876604    2.87050593864137
