    26
        -50.46196457  Gyration_radius:  2.40479416354 Dipole_moment: 9.497
 S           0.77515792244225   -1.13485270780683    1.43352953693245
O          -0.31834581061200   -0.19622803384659    1.68238825725977
O           0.58386525939079   -2.42070669683222    2.03105198035233
O           0.76980582279611   -1.35515769688959   -0.15887975066753
O           2.06479702366476   -0.48779419088681    1.66195590544336
H           2.02516225296485    0.75502653967794    0.89733380574041
H           0.07161626259798   -2.08638514254387   -0.25575101566435
O          -1.07481007392178   -3.06967845856241   -0.01278393558262
H          -0.74993747177832   -3.23210331959336    0.88768234037922
O          -1.52944829595247    1.26364334041214   -1.52882686830510
H          -1.97453613834681    1.63770882718972   -2.29035627311443
O          -0.55872148216513    2.28305332086441    0.87658194003302
H          -1.07882171962817    2.10720267281387    0.07552770559434
H          -0.60180921014740    1.43953571958834    1.38056030334755
O          -2.47818425991472   -0.82415212440578    0.28226716715001
H          -1.79721796614690   -0.58260692690129    0.94307467796218
H          -2.37612764839084   -0.17377348520818   -0.42333908659845
H          -1.80572984418495   -2.41430122876480    0.06721176122325
O           1.04231988437495    0.41338648901687   -2.07303854519464
H          -0.64294247451540    0.97963653828052   -1.81879628442550
H           0.94342341717335   -0.29578152830292   -1.39087898505634
H           1.33540310380674   -0.02781114751942   -2.87225341223837
N           1.90362993279717    1.65793010609947    0.28763941292404
H           2.64754372220151    2.31937954064786    0.48163128832957
H           0.93583861281830    2.05872686420160    0.53812305139711
H           1.88806920870478    1.38610271926195   -0.70165497721418
