    26
        -50.46196457  Gyration_radius:  2.40481563866 Dipole_moment: 9.496
 S          -0.26427868145379   -0.81732589360012   -1.79048996355201
O           1.05545820355783   -0.43387669751251   -1.29045681753571
O          -0.29888985002575   -2.10772247099538   -2.40736624522522
O          -1.18916160971999   -0.90258410811618   -0.47832205568795
O          -0.86764948634027    0.28498289930851   -2.53530488464114
H          -0.76370298111813    1.45391600930489   -1.66735397669817
H          -0.99400085373243   -1.84685303342482   -0.15924271955371
O          -0.37740529566054   -3.22942522219717    0.06002099087012
H          -0.20834987086674   -3.31007113496109   -0.89270300601282
O           0.83273225452784    0.63083867774915    2.27597010598753
H           0.90933764474150    0.84346786838855    3.20698375026898
O           1.76657854643910    1.77896208621800   -0.08559777516355
H           1.66767219465456    1.46422009308956    0.82778480220218
H           1.74041548196916    0.95777435011263   -0.62630492165439
O           1.70501281603275   -1.79017480794928    0.89095790076343
H           0.46981976995778   -2.94092016240828    0.47137373532591
H           1.63352525553098   -1.33909446101377    0.02486556252069
H           1.50460491879099   -1.10544403816962    1.54076696945424
O          -1.72653821667728    0.95727543681608    1.28708832982597
H          -1.56424473947801    0.22224201195055    0.64560711317117
H          -2.54039011976421    0.73535275001286    1.74280882495418
H          -0.10003024820862    0.75915830432815    2.02280534481133
N          -0.64687933724178    2.26898678298140   -0.94361997734874
H          -0.85104887170794    3.16179704673873   -1.37919882726016
H           0.37145769519457    2.21595626751019   -0.59709858594505
H          -1.26404461940113    2.08856144583864   -0.14397367387658
