    26
        -50.46196453  Gyration_radius:  2.40475757592 Dipole_moment: 9.496
 S           0.22692627042956   -1.62987484622766   -1.11149823536731
O           0.53052732515964   -0.29064900021682   -1.61446802134503
O           1.22355356340615   -2.60746855020396   -1.42475137157777
O           0.21479268187698   -1.47233252284223    0.48829190626633
O          -1.15900245346601   -1.98414943022900   -1.40785960668495
H          -1.96450287830818   -0.86300079542851   -0.93405685120808
H           1.20156804272427   -1.57525618983276    0.70553098833662
O           2.72676117801517   -1.66014453101135    0.62306601395101
H           2.65829780868519   -2.16622959116746   -0.20276319617865
O           0.27571554238572    2.21435151441545    1.13721939417753
H           0.32218667616723    2.92755240170912    1.77526679813243
O          -0.88161405188266    1.90099039237812   -1.37863851894387
H          -0.44244282854662    2.25148484395571   -0.58657208699458
H          -0.28163389579036    1.18610070064939   -1.68908356146073
O           2.47390223470511    0.85338828503899   -0.22370970276093
H           1.92687594193113    1.42568317778068    0.32815395054060
H           2.90417723449321   -0.72622199516762    0.36530260463040
H           1.85535029951653    0.48156815966837   -0.88540971222543
O          -1.26800840800809    0.08562007672106    1.98503568021517
H          -0.68997313361014   -0.52852385534271    1.46849647665138
H          -1.30181019254818   -0.26915327700820    2.87512334390244
H          -0.27169186772081    1.50814054859589    1.52742060694883
N          -2.48241890033378    0.02005595218474   -0.54182555101249
H          -3.45290117918881    0.02173404262813   -0.83629996703749
H          -1.94679887989457    0.87332406119602   -0.92270244923362
H          -2.39783612019114    0.02301040775422    0.48073107827217
