    26
        -50.46196456  Gyration_radius:  2.40483007808 Dipole_moment: 9.496
 S           1.06185485103427    1.45215923251066   -0.84066770228726
O          -0.10905531056016    0.86131689427102   -1.48773552055091
O           1.10052518255594    2.88094818186687   -0.90317593666976
O           0.91403317881263    1.05683402348580    0.71054066579175
O           2.27592625690286    0.74279412734949   -1.23659398218520
H           1.99793345483758   -0.67296872133017   -1.01618441808831
H           0.30694384924362    1.79826283526942    1.04713359666605
O          -1.83158705889336   -1.48632772280443    0.84082995563804
H          -2.39895506851931   -2.04404434807756    1.37461021824428
O          -0.67360309974483    2.96813902711718    1.14554454168116
H          -0.23636953735121    3.40355998295503    0.39590871843195
O          -0.74553045922971   -1.66752651904240   -1.71941858059516
H          -1.32220588229155   -1.72558151170804   -0.94018684638599
H          -0.62710327957788   -0.70104538564789   -1.85842115277198
O           0.75410477458999   -1.32020620370818    1.80089653514631
H          -0.95245251666422   -1.47570738491108    1.26230668112358
H           0.81981438374277   -0.40079538256529    1.44241970785300
H           1.01156716454658   -1.26334501525997    2.72272537952141
O          -2.31071089397569    1.25055438052552   -0.06608720535033
H          -2.36791542508478    0.37565702858504    0.33709128003459
H          -1.46871361516584    2.51497414148403    0.78127682812492
H          -1.59863159421678    1.17033623544211   -0.73331498833973
N           1.69862957519468   -1.70739944508186   -0.81069216187628
H           0.72044771209197   -1.82635579436045   -1.24525706788098
H           1.61174957810058   -1.82815161082817    0.20455753523674
H           2.36930376962338   -2.35608103552476   -1.20810607050743
