    26
        -50.47455443  Gyration_radius:  2.42604960046 Dipole_moment: 3.596
 S           1.14683879571427    0.92022845874790   -0.44331439704751
O           1.35251302353702    0.06732859043597    0.73237093527462
O           0.79405639053793    0.13661430126357   -1.61162276266622
O           0.16721884998535    1.95473812825738   -0.13956346911622
O           2.50975095494058    1.60673159009225   -0.76369761833182
H           2.67768813595907    2.14762159201937    0.03295945887134
H          -1.19520489023913    1.60094648750818   -1.12610205654315
O           0.88087550834024   -2.50797174474965    1.20492551719411
H           1.24581734732437   -1.60693024061190    1.07979291941480
O          -1.84689101608508    1.20084265912183   -1.73431387341391
H          -1.32603753241600    0.93776613300189   -2.49686187615317
O           2.05762828070723    2.65942465958031    1.61706849473180
H           1.19575498323392    2.71461839914581    1.17163306180474
H           2.06107516077934    1.81058846561595    2.07048683585294
O          -2.56113089753294   -0.97480068768849   -0.34814845029158
H          -2.51349443973495   -0.17095011463862   -0.91398971526837
H          -1.37331057745711   -1.79720022241812   -0.84738956261988
H          -2.22827953633390   -0.67220467930269    0.52184300863166
O          -1.14733306756399    0.12225785797390    1.67947642110366
H          -0.21698020519584    0.09477374163159    1.38120541814008
H          -1.40370981228011    1.04425989736479    1.59690439333171
H           0.29567795681981   -2.44226480384193    1.96383999414300
N          -0.38928671016894   -2.16169657488474   -1.11508523917284
H          -0.41695648419960   -2.86385381885522   -1.84534742424455
H           0.08456725378923   -2.51358456542603   -0.24628052444554
H           0.14915251767388   -1.30728351936975   -1.42078947903808
