    26
        -50.45671225  Gyration_radius:  2.76059439266 Dipole_moment: 7.092
 S          -0.84531046138305    0.15033271598263   -0.48148413018365
O           0.46421671797362    0.72386268956369   -0.83759529933849
O          -1.90692587991844    1.12554316253766   -0.52964067252748
O          -1.09645553649185   -1.07694564302886   -1.21803344357491
O          -0.69112481829346   -0.32574660395662    1.01754137869327
O           1.29690529921134   -2.05767771467350    1.68366285450424
H           0.47633101939673   -1.53900865777713    1.57632906564552
H           1.78132408528437   -1.64303334875732    2.39963889997795
O          -3.20141401407301    1.96350623449392    1.63695459480589
H          -2.81708630131118    1.70299757049952    0.77263895547436
H          -3.88958418671577    1.32303554600932    1.82167725722640
O           0.02462021846701    3.11545271657906    0.23391809579188
H           0.31100785078855    2.30747075011282   -0.23688177094935
H          -0.85673770398144    3.29347506676433   -0.10694556135045
O           2.59607229259723   -2.55150961857288   -3.34074230539462
H           2.05208630941232   -3.16152861571796   -3.84422332120421
H           2.80927378594994   -1.81387033977592   -3.91711378991388
O          -0.63778871740071    1.76630834649675    2.42940345553140
H          -0.64889330380390    0.50525286434884    1.62974950557088
H          -0.26170271090489    2.39868816386614    1.77187435908862
H          -1.59842792218381    1.95379348077455    2.42405954376433
N           1.37326335588772   -1.66889312560184   -0.98473077007388
H           0.32683109968213   -1.76652201090281   -1.15382368316407
H           1.93926091201794   -2.07475954444381   -1.74192401409327
H           1.40098860682579   -0.61664381372644   -0.96279386751793
H           1.59927000297185   -2.03358026109625   -0.04151535678840
