    26
        -50.45903114  Gyration_radius:  2.40967381944 Dipole_moment: 6.448
 S           1.42642781631390   -0.80130110931955    1.20571845185536
O           0.60543539406288   -1.61340233564044    2.12208817354002
O           2.82404314166327   -1.07110471912169    1.22924776230365
O           0.82635106350378   -0.89900510050640   -0.13853891632094
O           1.25085080161740    0.69058365471898    1.67047593226541
H           0.34286155445557    1.00413836887627    1.46931736280835
H           0.00528700726842   -0.38707871898302   -1.45885944065202
O          -1.03051805856802    1.79844194535431    0.90029319177958
H          -1.20695439054852    2.58872365492720    1.41284567349726
O          -0.53453721665292   -0.06869453893921   -2.21940091905597
H          -0.09342776347307   -0.38828219369608   -3.00759024219518
O           2.60673634257128    0.97221051112161   -0.86026082484237
H           3.28886613381759    1.01347902192873   -0.18669931157023
H           2.09059082387423    0.18157806194284   -0.62823006910802
O          -2.47725137929728   -0.17106450139182   -0.28005589518756
H          -2.02936169626394   -0.10965214826419   -1.13963416903434
H          -1.86227420236131   -1.45879835745584    0.36234768176041
H          -2.11200947289913    0.57080165480709    0.23736548706626
O           0.30926355638855    2.37828369864025   -1.22703518446070
H          -0.53439398547278    2.10227044384540    0.07326790206443
H           1.22611736519611    2.07498374885560   -1.06476902807137
H          -0.06528883854963    1.70173354671749   -1.81498661877069
N          -1.37120605933592   -2.33397733986858    0.73854557220058
H          -0.52071216036149   -2.01224314051923    1.39839735438997
H          -0.94951118042406   -2.83117653107016   -0.04024350380933
H          -2.01538459652160   -2.93144759695493    1.24639356755149
