    26
        -50.45811203  Gyration_radius:  2.55885088599 Dipole_moment: 5.255
 S          -0.33292245603812    0.46446890375256   -1.05694340044372
O          -1.32818106050131    0.57829301909290   -2.12003234833011
O           0.61519612970030   -0.62008677943410   -1.34868167344796
O           0.31800641031500    1.70752725561288   -0.71572539357941
O          -1.15888245720730   -0.01633683140068    0.18626475248043
O           0.43136789510340    3.00703068468125    1.59183673608121
H           0.43502753267290    2.62129946021226    0.69040213640336
H          -0.24549712102593    3.68523108439020    1.58673578484432
O          -2.60303417550667   -2.28813097091430   -0.08340623188220
H          -2.08885925906985   -1.49907353372261    0.18221425851585
H          -3.50861961892051   -2.11961553360151    0.18180244811334
O           2.79714410618624    0.52087948726357   -0.34034468387716
H           2.38830253365353    1.39290769374365   -0.37767094407063
H           2.14223105566897   -0.04992356765037   -0.78429762323900
O           2.49464249949814   -0.32922753830192    2.16516214720752
H           2.68718136333668   -0.08130437327424    1.22866901505022
H           3.09776286165089    0.18468923264470    2.70466390782869
O          -0.02724910109305    0.47483703195153    2.35741214497445
H           0.13196977831210    1.44000140565804    2.28373050431924
H          -0.67060934244459    0.16883056271129    1.09826129953731
H           0.87194057328092    0.06376547481728    2.34833479384305
N          -1.31083675919288   -1.91670601705874   -2.39157892824203
H          -0.33783670172967   -1.76837256223192   -2.00773330656326
H          -1.54988924241727   -0.86053346121613   -2.48244553948465
H          -1.33830855630966   -2.44327023807113   -3.25732681470454
H          -1.91004687796507   -2.31717990963351   -1.63930304134349
