    26
        -50.44621511  Gyration_radius:  2.41615424297 Dipole_moment: 3.592
 S          -1.68080833701696   -0.00401661494366    1.10900284505640
O          -2.18631288258533    0.91353609736080    0.12386779853450
O          -2.23869059212515   -1.31151666332226    1.12630844919159
O          -0.14396189017355   -0.08096954912218    0.91453188325657
O          -1.78539377898897    0.65417939813086    2.50615583872225
H          -1.32065232103466    1.52558154789465    2.36152737047009
H           0.29227420214025   -0.98712791260106    0.93668749936035
O           1.34817570237342   -2.16051853478473    0.85801627038146
H           1.80013916452441   -2.24468702061448    1.69991008203714
O           1.37104404442534    1.91576341953947   -0.37713377889911
H           1.70070722535563    2.66669899209314   -0.87461481619876
O          -0.60144852460087    2.69596030765653    1.44132785295584
H          -1.28536164211184    2.59403045356142    0.76660793426071
H           0.22070441180140    2.39225762812552    1.01032607607568
O           2.63008017745577   -0.49175884923576   -0.72159946523262
H           1.94580803268334   -1.62924738206532    0.26722351271546
H           2.25818991830737   -0.62000598765991   -1.59779359611168
H           2.28360802078746    0.37113529117253   -0.41743751442895
O          -0.39285699885137    0.67559597053666   -1.88656736958233
H          -0.37794201127600   -0.30695307433592   -1.83846255100841
H          -1.17603441860945    0.90424298748648   -1.36088726590644
H           0.69488503417747    1.46811311121209   -0.95709268699061
N          -0.74423793156932   -1.98947331873587   -1.37696423785727
H          -0.00425394330651   -2.53046218086703   -0.94340710739479
H          -1.15139347451723   -2.56304071081134   -2.10640622385459
H          -1.45626719726353   -1.85731741566630   -0.66312678954805
