    26
        -50.45475610  Gyration_radius:  2.58853589267 Dipole_moment: 6.606
 S          -0.25206133595891    2.09093896787488    1.58563707619798
O          -1.70207671406595    2.06059551130285    1.42184920016603
O           0.24703482175952    3.00986661139421    2.55727269605385
O           0.10321847936240    0.60734061533334    2.19041853362200
O           0.40958045686700    2.08502752998677    0.29334566128109
H           1.74527457132165    1.43473048165683   -0.24021721402016
H          -0.04518337811764    0.75386966064183    3.11936293235678
O           0.38943913808743   -2.49073123106877   -0.75325334358809
H           0.80148697018599   -3.34503600483295   -0.88631838554445
O           2.49736135237422    0.93981816543687   -0.66187421901942
H           3.19188676791663    1.58401445443292   -0.80278851891693
O          -2.22334799351601   -2.02759679050583   -0.23274715522572
H          -2.72043410747991   -2.61269060567438   -0.80597824803002
H          -1.27843871310316   -2.26112426721056   -0.34575342928420
O           1.83779819693884   -1.16107003058736    0.94612771411362
H           0.93863857037029   -2.02648438338861   -0.05505077487942
H           2.28808156738402   -0.50851553663183    0.38024085463455
H           1.22531900849153   -0.63497115256904    1.48350904671817
O           0.32251271065946   -0.04681036112728   -2.09441870432709
H           0.36767574883767   -0.97045023536277   -1.79862938879964
H          -0.93526635864793    0.55796556027123   -1.21349502593857
H           1.13661969168631    0.36959660551378   -1.76769158660453
N          -1.86443552076277    0.63351571526138   -0.71287418773573
H          -1.77917790448689    1.24372942350307    0.17212280145033
H          -2.14825082306859   -0.33200643787780   -0.44518608941744
H          -2.55325519313525    1.04647774434380   -1.33361024531403
