    26
        -50.46847877  Gyration_radius:  2.44289691585 Dipole_moment: 7.224
 S           0.76236696778309   -0.63056318476757   -0.79018580345450
O           1.50295451126391   -0.63417000383691   -2.13501042608247
O          -0.55177361005459   -1.24550401382110   -0.96056584928103
O           1.56226053568735   -1.33437886811102    0.18549852111539
O           0.59017620252815    0.78835617142777   -0.39092273534454
O          -2.12817965706565    0.27236367296253   -2.53070616761806
H          -1.67590223965748   -0.46854854551974   -2.08655715482074
H          -2.45906266533262    0.82314024705136   -1.80413504168273
O           2.60878374675195   -0.78772022809067    2.53053202124810
H           2.31224436949399   -1.15034098467411    1.66388709911941
H           3.51934272481811   -0.51674372807763    2.40266438794593
O          -1.26072786964518   -1.39635975764608    1.52648152212187
H          -1.01627739739679   -2.26688684389317    1.84671804025275
H          -1.04186702826225   -1.40608125190624    0.55790641166147
O          -2.05172723251368    1.24854005400426    0.08978739636479
H          -1.11417123995167    1.13170932105802   -0.14587850934856
H          -2.32484017217824    0.42972665430755    0.51176974707650
O           0.21275225162463    1.33340344917038   -3.12265083099039
H           1.05633068502920    0.10139964123832   -2.66386716965080
H          -0.72060661622555    0.99573743149799   -3.09810418958824
H           0.31628647238017    1.86715961072118   -2.32778130638342
N           0.37780513879348    0.59656748821104    2.18400705699190
H           0.04238226882667    1.39420458015535    2.71392589725109
H           1.27421007437896    0.19342360120300    2.55098713300868
H          -0.33813407904637   -0.17641115638300    2.13436639098823
H           0.54537384797620    0.83797664373855    1.15783354910362
