    26
        -50.44731980  Gyration_radius:  2.52066391691 Dipole_moment: 6.565
 S          -1.95720923862717    1.49052590001619    0.03234347739325
O          -0.57681367533724    1.80346610642042    0.31199578112628
O          -2.85436956998740    2.57726663684015   -0.08338160079389
O          -1.96209393958916    0.60791704798320   -1.26473675901977
O          -2.48860819019400    0.49344795857228    1.08116607182689
H          -1.86108132452214   -0.28007221000480    1.18586840450403
H          -1.25676015104056    1.04615984985410   -1.85173824472292
O          -1.02541446502494   -1.64000203168740    1.26278096245123
H          -1.65907414346700   -2.33113403838250    1.46727214810104
O           1.67193473735290   -0.33653552508903   -1.79253126194423
H           2.52566350767429   -0.53779525626363   -2.17657154137968
O           0.02236338025759    1.71262083027650   -2.38064093580659
H           0.68031652980797    0.98373409105509   -2.34040249662563
H           0.18598787582418    2.25281659551070   -1.59714743306529
O           1.96952833867079    0.84972477388425    0.46827586879386
H           1.95137673131137    0.21919707579629    1.22658610206454
H           1.85282433203228    0.08845567366441   -0.89364447085407
H           1.11935082872474    1.31715103262185    0.51672106453696
O          -0.55233736160809   -1.81611503028960   -1.28212262335425
H          -1.22100135512899   -1.17170657773005   -1.55101131775373
H           0.30611868618491   -1.41257662407091   -1.51401630475514
H          -0.76796433962224   -1.77598423854695    0.30313960451392
N           1.58400943633012   -0.87692681316649    2.52716549452333
H           1.48082653839333   -0.37465648426325    3.39951006723437
H           2.16822556503086   -1.68503006244963    2.69867809851146
H           0.66420125654817   -1.20394867056369    2.24644186450560
