    26
        -50.44731993  Gyration_radius:  2.52082458547 Dipole_moment: 6.569
 S          -1.43090881569043    1.87169409395296   -0.71184101969088
O          -0.00832969036324    1.70262884987475   -0.88334290494637
O          -2.04095161554472    2.94449385717133   -1.40210077278782
O          -2.09339689876279    0.50093446100089   -1.09078728369918
O          -1.76724833115955    1.96750713083833    0.78959650830541
H          -1.33310424615083    1.22217537750501    1.29857265549136
H          -1.56269956730057    0.19870582837917   -1.90382496980940
O           0.80627649992414   -1.93192967301963   -1.31834462798272
H           1.39974782610047   -2.63628374379003   -1.58013360310705
O          -0.85140748997921   -0.04339103573958    2.14721546756351
H          -1.50920260732639   -0.16913563282042    2.83462946213906
O          -0.43891981308292   -0.13655897586558   -2.89638325432913
H           0.10872937500188    0.63222589347269   -2.69289656359058
H           0.00856000310444   -0.89991263822568   -2.46861371336157
O           2.14488453757675    0.08836470319278   -0.46223174058874
H           1.38479652069821   -1.18717710831957   -0.95485823461375
H           1.49531360300120    0.79180181864386   -0.62629898217745
H           2.25551697579478    0.07436684563229    0.51787380718658
O          -1.36329442638700   -1.81079644028744    0.31802231793682
H          -0.57599632920085   -1.99784991864093   -0.22841173396815
H          -0.98819477847161   -0.79136278448576    1.49340960840008
H          -1.92050435369625   -1.23402216801933   -0.22198543834454
N           2.13736223829903    0.17241559071414    2.25097039986080
H           2.46874982006235    1.06930483103925    2.58221853753301
H           2.54485259539526   -0.54671262034042    2.83460871314067
H           1.12936894815464    0.14851344812466    2.37493733543054
