    26
        -50.44731984  Gyration_radius:  2.52075831167 Dipole_moment: 6.568
 S          -1.07757115029222   -0.18994200380452    2.20415402893439
O          -0.48406137236637   -1.22600642374307    1.39424153429517
O          -1.44198849005998   -0.53389773153236    3.52634128240747
O          -0.07885706387252    1.01987162786418    2.18553462471538
O          -2.29567066250593    0.40937352592791    1.47365361605618
H          -2.06135106908618    0.64928445494933    0.52994684574859
H           0.83302361864053    0.57496093073869    2.25405720129528
O          -1.71744711072209    1.24788363189579   -0.91139918031517
H          -2.29221069740235    2.00745124552906   -1.02854662583306
O           2.40724951915450    0.16534035788681   -0.54730709087840
H           3.20386032429497    0.05485674543190   -1.06696724357952
O           2.04441091056497   -0.35217863642541    2.07301245529142
H           2.35185428969060   -0.13407529511166    1.16541797750136
H           1.53501812314309   -1.16777985593373    1.98492989278069
O           0.81459052090420   -1.81633233427836   -0.92589034749386
H           0.15237786114652   -1.63344638783930   -1.63368068382591
H           1.80765891036505   -0.61764722658609   -0.76816075816056
H           0.30784050101296   -1.77460897216949   -0.09819169665193
O           0.61255095598292    2.18994978191147   -0.26718424730026
H           1.32367369937077    1.55157457451465   -0.46790023173960
H          -0.79695364385094    1.61760645056798   -0.76416553794945
H           0.47952724487640    2.13529839487437    0.68887080464098
N          -1.17927895940359   -1.14202926241897   -2.64016013359225
H          -1.02406627000536   -0.87910723501699   -3.60479556352054
H          -1.50653403862464   -0.32280480737648   -2.13656797410506
H          -1.91764596095339   -1.83359552984623   -2.61924292872126
