    26
        -50.44703788  Gyration_radius:  2.47149718535 Dipole_moment: 4.901
 S           0.37379204620051    0.67856864190870    1.92264639903066
O          -0.92611274774050    1.18655992836011    1.57494063658326
O           0.88133207306304    0.93332777777757    3.21643243629304
O           0.35880368928264   -0.86742273502985    1.69290197593043
O           1.40588118502250    1.17951428448734    0.87537837159043
H           0.99630438335399    1.26108119591954   -0.03671000436210
H          -0.29800081112817   -1.11079722650661    0.97513834430060
O          -1.31810983689039   -1.60472494869797   -0.12755382720492
H          -1.70449414715553   -2.44744285573736    0.11830026589918
O           0.52969711354951    1.31376053010647   -1.54809408274520
H           1.17118873514937    1.77556521840887   -2.09066454852943
O          -1.95821421196131    2.31514636021418   -0.74847294859229
H          -1.62871962774574    2.29280453192713    0.16137253506220
H          -1.20446711528773    2.03585282868085   -1.28513828997165
O          -3.15740125518580    0.14690925956605    0.25961787655291
H          -2.95993639225805    0.90648710980635   -0.33144970005664
H          -2.06749529350664   -0.92605577881279   -0.06073410166093
H          -2.83279443515044    0.44923195945784    1.11737898297587
O           0.77668622864739   -1.21173343702049   -1.92063155492379
H          -0.01231958616020   -1.52429884718542   -1.45410802790754
H           0.59478716613364    0.33496602110534   -1.79670336889001
H           1.53764708116857   -1.39303691445747   -1.31582008474348
N           2.71007402546999   -1.44883214112937   -0.03104240102251
H           2.14031904774661   -1.57225935703433    0.80003003695029
H           3.15913815323882   -0.54501835739887    0.05957113932786
H           3.43241453222180   -2.15815306873135   -0.02658604991551
