    26
        -50.44703802  Gyration_radius:  2.47158190367 Dipole_moment: 4.899
 S           0.61441525495186    0.03503229103096    1.97978617995353
O           1.81767361584369   -0.06993832831847    1.19886088646595
O           0.72087038173211    0.13899530949781    3.38486424808629
O          -0.19075331706465    1.26661655042060    1.45217527159315
O          -0.31302195708772   -1.16325931431540    1.63807120600698
H          -0.21963913843497   -1.44042023541254    0.67851406091282
H           0.00916620352378    1.42937965194336    0.48296597977017
O          -0.27884293908207   -1.90491204286772   -0.83342890749374
H          -0.75001974244083   -2.73532369335477   -0.92032941828632
O           0.26756388707934    1.78473011051840   -1.03596187234199
H           0.25446583922149    2.73422181450460   -1.17092558796364
O           2.49067366042145   -1.56563360466670   -1.04761316792294
H           1.57239878234550   -1.80307992649878   -1.23342834464481
H           2.49058385645671   -1.31042182122346   -0.11392544337871
O           2.73947825978231    1.09535346984112   -1.16413966057849
H           1.22954656996040    1.49839171212123   -1.17411485132780
H           2.88528999244822    1.05616870477367   -0.21031713967504
H           2.76103124416418    0.14975368818528   -1.43004613939614
O          -1.81359101781884    0.01262164242920   -1.57247584602225
H          -0.88040829310263   -1.19115694961907   -1.22409978957537
H          -2.33860471517118    0.13041305396895   -0.74291247860633
H          -1.17369044604934    0.73937720795376   -1.58609366752470
N          -2.93029222319625    0.25731855561435    0.88876065001524
H          -2.26422896436257    0.88353257360428    1.33003360028741
H          -2.83794636079991   -0.63701362025789    1.35604282808612
H          -3.86211846321391    0.60925323003535    1.06973739359872
