    26
        -50.44703802  Gyration_radius:  2.47161151864 Dipole_moment: 4.896
 S          -1.05274604353748    1.68749406395504    0.58702677231157
O          -0.24354964625639    2.09961494749001   -0.52835531110285
O          -1.93498563505368    2.62343202300361    1.17189496921741
O          -1.88094755859093    0.43947375392683    0.13993575244939
O          -0.12685726000893    1.11601768057568    1.69559017069463
H           0.67326912954366    0.65289265029703    1.30595681386861
H          -1.39301047408448   -0.06961973101139   -0.57309886234599
O           1.90938131178809   -0.21942667117947    0.84186533422722
H           2.50167210144890   -0.39509188373560    1.57501246959033
O          -0.71956643773292   -0.93510724957069   -1.71260460592239
H          -1.38191721656122   -1.28420236952476   -2.31206201778202
O           2.38853134376387    1.57090752497600   -1.25435447629647
H           1.64249827637649    2.09287924654322   -0.92575508467986
H           2.47681368643874    0.84853499697439   -0.61827410308822
O           0.44251534067408    0.96879971972215   -2.98792984525886
H          -0.20154411086584   -0.24483709189352   -2.24337442756140
H          -0.05478471222564    1.68785491022989   -2.57795841573991
H           1.33881517076820    1.06952843743767   -2.59812711501797
O           0.51016968573466   -2.31629380025917    0.36999019078655
H          -0.18638009188935   -2.20742495090990    1.06328248726918
H           0.09604902260136   -2.05260454633741   -0.46478479317506
H           1.44955328794473   -1.09510315963810    0.62756404417557
N          -1.37705477584496   -1.64391880481904    2.20046245366414
H          -0.93610916672986   -1.04259117413684    2.88654763489105
H          -1.96499683724031   -2.30310541540944    2.69516613148841
H          -1.97481837069049   -1.04810309663729    1.63638382333534
