    26
        -50.47229122  Gyration_radius:  2.48097350447 Dipole_moment: 2.004
 S          -0.91432465326178    1.00218751139395    1.83114901210545
O          -0.23502976467454    1.58501098446916    0.67836091227160
O          -2.01616604877675    0.15196990542276    1.42838852346773
O           0.01747598846375    0.36673563708564    2.74292824962257
O          -1.55108624112832    2.20626212208100    2.64159392281266
H          -0.81899332864312    2.46883328502578    3.18930949528477
H           0.63021238812882   -0.90502656068898    1.98804976273793
O           1.06821678952011   -1.63745933107223    1.48346316700851
H           1.19470143165499   -2.35011473441028    2.11181862863685
O           1.62800427054333   -0.07366899958724   -2.19337847988502
H           2.39096294886027    0.00441751882133   -2.76621307876896
O          -0.64959882017500    1.47261767613878   -1.97936945344626
H           0.17867055608667    1.03273426718852   -2.24318301562513
H          -0.50027030066310    1.75211411235436   -1.05552635207396
O           2.20335888759172    0.60962803998312    0.25433128566744
H           2.14487801754678   -0.21663107413689    0.75353485286374
H           1.92435235511382    0.22126129658672   -1.28431467143577
H           1.37678666003539    1.08817219820392    0.47391317536901
O           0.20611420652955   -2.14473278390535   -1.06694328971513
H          -1.17988245723909   -1.35725159405071   -1.09873851673175
H           0.77593490962012   -1.55081801793895   -1.58822965663479
H           0.51802369823548   -2.06016385892043   -0.14609549102391
N          -1.94387593438252   -0.61894448417516   -1.06612057969422
H          -2.81657788240488   -0.95382435852015   -1.45687716914001
H          -1.56856123608508    0.23660241866438   -1.57757398656053
H          -2.06332643056420   -0.32991116597488   -0.05427725703416
