    26
        -50.44639635  Gyration_radius:  2.51421948189 Dipole_moment: 3.603
 S           1.58169760071844    1.33403379570391    1.10573374390839
O           0.90745726007094    2.51593621449527    0.64234692768133
O           2.59489449612643    1.46140320824685    2.08351353416615
O           0.48703704950731    0.34605858407335    1.63702666897734
O           2.17219978503516    0.57438386451650   -0.11024039242338
H           1.48604352902310    0.50487468329458   -0.84077791363155
H          -0.42470427928022    0.64012037926229    1.35529573628019
O          -1.88881697268505    1.12504677442200    0.92436772735754
H          -2.18046306069509    1.77426886086833    1.56701173741508
O           0.43298604503747    0.25682362365587   -1.98069935266308
H           0.89757726193463    0.13099829999857   -2.80989837944640
O          -2.58992072650338   -1.44314412275287    0.13293362481526
H          -2.39041406977648   -0.57213567177954    0.51097972723705
H          -3.38030762300284   -1.33970139995848   -0.39939072872332
O          -1.05900183671383    2.40694807278289   -1.14698195380255
H          -1.68443630203107    1.63704301727123    0.07815732067987
H          -0.31587384273815    2.74329733467390   -0.61032433577105
H          -0.66816984957584    1.70164058671155   -1.68738248358713
O          -0.29776989502553   -2.04941234849890   -1.21786442527272
H          -1.13961727775628   -1.95891732236766   -0.73166658859235
H           0.09210151674494   -0.67370283663049   -1.70926678930899
H           0.38357473658421   -2.25727884851390   -0.53160234125622
N           1.57020892939459   -2.26981867282338    0.72896517808637
H           2.44526710232596   -1.89276938674071    0.38456995009229
H           1.77533078416495   -3.11265662648143    1.25076698641714
H           1.19311962912186   -1.58334005336634    1.37442679148506
