    26
        -50.44639634  Gyration_radius:  2.51430536807 Dipole_moment: 3.605
 S           1.51129784741297    1.60566460114252    0.80230683838525
O           2.56923799308939    0.63382884473250    0.75198324303463
O           1.83678336042243    2.96226602101080    1.03142335175742
O           0.70910505879050    1.49750315922995   -0.53984668786272
O           0.46884599847743    1.16959362031662    1.86417824405411
H           0.24879218874554    0.19572459240270    1.75242410642198
H           0.95427445007182    0.66616217100898   -1.03563732862429
O          -0.23077552504905   -1.28956306181287    1.56832643657146
H          -0.56221758888606   -1.61450194940075    2.40725870040235
O           1.36559974539404   -0.65468136994937   -1.84252538256887
H           2.15625647023528   -0.45300429763059   -2.34620995411187
O          -1.29529158424295   -1.26616270366845   -2.35106780032054
H          -1.29790124781418   -2.18189103067997   -2.63426575699145
H          -0.36575337740348   -0.99886599969968   -2.27410435879649
O           2.09739869652857   -1.93882373810013    0.26394153209092
H           1.27339010025995   -1.99145034850076    0.77432586207763
H           1.65716903398217   -1.26110079789419   -1.08935311329589
H           2.52911380734704   -1.12256958989193    0.58145112181404
O          -2.26959576059976   -0.77406345511440    0.14976748849468
H          -2.32927368901362    0.20936280508256    0.23706519263078
H          -2.04232000423460   -0.94044108570831   -0.78510239180299
H          -1.06058955760745   -1.13795751845800    0.98168970034984
N          -2.07796810611977    1.91381034704145    0.40923717099302
H          -1.24838919759798    2.05872015997431   -0.15724814525934
H          -1.81749599444719    2.13057923659948    1.36405956586686
H          -2.77969311795639    2.58186135800353    0.11592237469558
