    26
        -50.47168669  Gyration_radius:  2.49105431726 Dipole_moment: 3.009
 S           0.79188169885913    1.14053772706396    1.83650917917260
O          -0.43054622089442    0.72514824757569    2.51620243464460
O           1.82953366191599    0.14107342865921    1.84311789428621
O           0.48877977614542    1.63376774214789    0.49517602767478
O           1.34298209949152    2.37663528286895    2.65645017567540
H           0.56091869179490    2.91225417053352    2.73382451983550
H           1.85174681154001   -1.11179027286233    0.85218771964614
O           1.86400762980661   -1.83780878356743    0.17728616398175
H           2.47968724718516   -2.49382367128081    0.50692813069102
O          -0.49994334081036   -0.31322563607055   -2.64830179734738
H          -0.40400656271367   -0.35420298478769   -3.59991790126550
O          -1.74881631776354    1.49474802845251   -0.99271018207411
H          -0.93870395812267    1.76614318677216   -0.51864184933611
H          -1.42988218067993    0.95615027174629   -1.73952372268494
O           1.73412762575349    0.38231439068270   -1.51025644968870
H           1.39275571829317    0.94512986942487   -0.78526143690943
H           2.02750838068091   -0.43193989965100   -1.07581500336430
H           0.38809090459822   -0.02179002099403   -2.28680857293044
O          -0.71473881754620   -2.17146652124972   -0.62869367783701
H          -0.70838184046963   -1.66123559836970   -1.45895153008445
H           0.21234663158805   -2.17243617792481   -0.32255728956626
H          -1.55371033968273   -1.20801967429891    0.32258350780045
N          -2.04294131457179   -0.39611542815392    0.80375788312695
H          -2.13067869214939    0.37903660169797    0.07820762447542
H          -1.41879021854811   -0.00535614662919    1.56779661533612
H          -2.94322707365984   -0.67372812178189    1.17741153671751
