    26
        -50.45060048  Gyration_radius:  2.56278563028 Dipole_moment: 6.186
 S           1.77018321367832   -1.25761754788053    0.53108865107347
O           0.89598288573896   -2.12988115815298   -0.22253249745831
O           3.00845223624814   -1.79563858781444    0.95230085258623
O           1.98066337129520    0.02735376692461   -0.34536523023817
O           1.01542653192755   -0.68584129511964    1.73685613783215
H           0.10789796605001   -0.29488229508226    1.44314549781547
H           1.96556558412518   -0.31426878749344   -1.30166106975062
O          -0.85908285525614    0.05896319070544   -2.76956830244688
H          -1.47886201915608    0.06422268164743   -3.49959066639122
O          -1.15897786842263    0.41915097138594    1.07112587466377
H          -1.27401030986142    0.94588323143678    1.89995224097705
O           1.60042732081721   -1.06067736074744   -2.60051845784339
H           0.75349516624497   -0.63735440050762   -2.85426238001148
H           1.35939050564714   -1.86609951888384   -2.11999500010383
O          -0.07931439063181    1.87359862115455   -0.84089509310732
H          -0.85113200820981    1.06226018928885    0.37954358119470
H           0.82275630866487    1.56406427247147   -0.68437516490508
H          -0.37537619142280    1.41660435804874   -1.64733485849269
O          -1.63925928002784   -1.51612192993404   -0.84000316109548
H          -1.83402762109740   -0.93183314649964   -0.09378385587481
H          -1.23661569885406   -0.55774972974998   -2.07784833040206
H          -0.78231711239942   -1.92666182180880   -0.61365168248392
N          -1.00852978334740    1.77795600041531    3.39073156945243
H          -0.15387972523358    1.34030733347909    3.71471247994456
H          -1.71508421303003    1.65446457283347    4.10470408586768
H          -0.83377202349868    2.76979835987951    3.28722476920541
