    26
        -50.44862207  Gyration_radius:  2.41676432534 Dipole_moment: 4.700
 S           0.85214563961469    0.78160467112448    1.72573140786284
O           2.22805915699290    0.97732382564436    1.07900497875968
O           0.64772044688940    1.73702081341741    2.75198285171672
O          -0.14454850756456    1.01038896692683    0.55296600022087
O           0.66744403031465   -0.60383512816441    2.09381398625481
H           0.70444018415587   -1.76102973480334    0.94385121042993
H           0.03386547990756    1.83811257595521    0.02670427939902
O           0.78835549472343   -2.38560105534666    0.18265152872496
H           1.11008797863716   -3.21170177880402    0.54646281161920
O          -0.07685075788337    0.48529600045690   -2.44976524315714
H          -0.19131674198360    0.17042928350643   -3.34763237055905
O           0.11514627496447    2.87042497053367   -1.20404673311348
H          -0.71795302914448    3.33707264987385   -1.29804061230518
H           0.09748974840253    2.12875148430978   -1.84152243018730
O           2.11314915104929   -0.38100569603173   -1.05585618323618
H           1.74002864005830   -1.22614343639198   -0.73884498644885
H           1.41452855672750    0.02194477495462   -1.60982530960628
H           2.26459128814680    0.43789015780202    0.20789447372716
O          -1.45325936708480   -1.20354502751057   -1.02642845176570
H          -0.75068064934443   -1.80424851520013   -0.73892484505244
H          -1.84407658235676   -0.87970868287845   -0.18429937276294
H          -0.66830426489761   -0.09089602664153   -1.87735301576836
N          -2.24227168175157   -0.63076119869446    1.54683683643086
H          -2.58575839971513    0.30757000477386    1.70694870105065
H          -1.29349912924478   -0.66087280436532    1.90969910922886
H          -2.80853296958997   -1.26448111442816    2.09799136852925
