    26
        -50.44809721  Gyration_radius:  2.47099669707 Dipole_moment: 6.462
 S          -0.00730741151943    0.73582030537335    1.45428509400566
O           1.07164756034765    1.02208748625905    0.38548044182838
O          -0.02450540235713    1.78778092916312    2.39848052551966
O          -1.32066523270545    0.75515964086484    0.59880173326601
O           0.10121240483424   -0.61865884706238    1.92502659164500
H          -0.18023949330264   -1.86504266499248    0.92623965227251
H          -1.23293069054567    1.49694754140708   -0.07793382143483
O          -0.26780379299928   -2.53946731441284    0.20781747810180
H          -0.02286586882492   -3.37986711328150    0.59887886589649
O          -0.85363531046984    0.08405864404609   -2.80875823183826
H          -1.16613506061452   -0.01349174328751   -3.70924755199240
O          -0.78434963677243    2.35725548628766   -1.31945112018820
H           0.13781237010735    2.55218277145912   -1.12713457524118
H          -0.79047406262347    1.65815544990861   -2.00565586910736
O           1.20918294699965   -0.85107105212937   -1.29415277429812
H           0.59824887883461   -0.54996350966349   -1.99255483952947
H           1.19467427802564    0.23629602737700   -0.27610706453968
H           0.77377470812401   -1.60982465369556   -0.85629071811601
O          -2.32031350827455   -1.23124519020581   -1.08118812914120
H          -2.38431595569647   -0.56131794652372   -0.38744180427463
H          -1.48929275012597   -0.42257086997417   -2.22952201092366
H          -1.73615899786919   -1.91441492044756   -0.71273624265923
N           2.62276087292035    0.63982236820751    2.96882563097503
H           2.75548594080844    0.98103156554001    2.02470489982262
H           2.15037155265571    1.37866331561736    3.47633395810533
H           1.96582166106862   -0.12832571580013    2.91329985191319
