    26
        -50.45169207  Gyration_radius:  2.58354930295 Dipole_moment: 3.482
 S          -0.37130013886035   -1.17293704435027   -0.18520576454920
O           0.40850761417511   -2.05742415698223   -1.23189181183405
O          -1.68890933661705   -1.71478138823299    0.01041776263053
O           0.47724271444367   -1.16582498922204    0.99608004739084
O          -0.43727810404384    0.17204935411586   -0.79682037275548
O          -0.97334422488254    2.46114278794852    2.18937702670353
H          -1.28067967269030    1.52769058575872    2.11816787940153
H          -1.02568183428899    2.67217128729234    3.12372862180756
O           2.83452805294265   -0.89139715665686   -0.06562699665103
H           2.78420695109037   -1.53779707791350   -0.77519318596582
H           2.04688950262247   -1.08102134179738    0.49928283579215
O           1.41189616495856    2.88637582708584    1.16465717551986
H           0.52342712430154    2.66864610956732    1.55366499476479
H           1.34692883800812    3.79204068271877    0.85518141504108
O          -1.64020183906053   -0.11893228812709    2.27596455720435
H          -2.16536451624041   -0.55963759274621    1.59675222603179
H          -0.76174203167032   -0.51541517504413    2.16651610835849
O           1.73446578311634    1.29082170967634   -0.79902471157646
H           0.73135099980000    0.82684054075310   -0.85130869576798
H           1.66881937306031    1.93064952749379    0.00192433010264
H           2.32750275517282    0.50515622820738   -0.52163559486110
N          -1.67082216386514   -2.00424403544512   -2.80392663861798
H          -2.13572066763601   -2.69837317315449   -3.37506736476312
H          -1.75887634201582   -1.10369429421359   -3.25676307723363
H          -2.14462011379662   -1.94610056659207   -1.90485242060782
H          -0.24122488802362   -2.16600436013001   -1.98439834556260
