    26
        -50.44809708  Gyration_radius:  2.47114372945 Dipole_moment: 6.456
 S           0.93442806514635   -1.33394608504683    0.05320962763505
O          -0.43663394342318   -1.25296941820628    0.76207842976637
O           1.30476157178792   -2.68964756771973   -0.09965492006079
O           0.61231786276787   -0.69985815448384   -1.34365897270806
O           1.86692548928524   -0.42325805900511    0.66068868564633
H           1.62501910654816    1.17852497581900    0.58252579624819
H          -0.30139159741554   -1.02224682743419   -1.62158556738954
O          -2.15967043376257    1.44376952821026   -1.37033938512921
H          -2.78783977371829    2.01960737220032   -1.80835919663691
O           1.32219295591235    2.12016421978215    0.56590713578468
H           1.92842929970164    2.60563588483718    1.12805209412030
O          -1.85969302002875   -1.23667114223274   -1.70979106873258
H          -2.15110022212504   -0.30432224895954   -1.63557919398234
H          -2.06839213939706   -1.66231446180607   -0.87272339191844
O          -1.12879040590856    1.14121600991709    1.13398028770419
H          -0.71082546344888   -0.28132334218808    0.98737032867426
H          -0.30150373382645    1.65567129254937    1.04480663150740
H          -1.65726532900816    1.33168593255988    0.33644973929196
O           0.32417743930882    1.99410891276089   -1.99793886389826
H           0.65632913765814    1.09573611014155   -2.12727897612709
H          -1.25409980122081    1.71011887003160   -1.69464370115679
H           0.73921698878596    2.29522633320960   -1.17284623068910
N           1.43400672604817   -2.45788422171252    2.83018558268796
H           0.44593179969375   -2.31330898422558    2.66258185648228
H           1.70616196963147   -3.25493526717489    2.26699456252861
H           1.91730745098814   -1.65877966182106    2.43956868042564
