    26
        -50.46011217  Gyration_radius:  2.39820009417 Dipole_moment: 9.010
 S          -1.20733830985387    1.32030942557480   -0.79808860933490
O          -0.80064557541293    2.56809735910905   -0.14371650898976
O          -2.22953458883000    1.41634351158001   -1.78428316960372
O           0.10954552134188    0.83914393694163   -1.58897120171952
O          -1.43538168160933    0.28939323005490    0.21585851466860
H          -2.35535515889331   -0.82433555145119   -0.69427713701656
H           0.86134923129974    0.84486080396050   -0.96916521116864
O           1.27642097283077   -1.94164050667709    0.45942359462663
H           1.71151814760823   -2.79414933197516    0.50378637134402
O          -2.65355617008202   -1.36898800650382   -1.44722229919866
H          -2.92555528717568   -0.71327443778651   -2.09734930440977
O           2.30853698348740    0.45919340426430   -0.02282397129860
H           2.00172762778196   -0.45081984893393    0.21055955348754
H           3.00784993423165    0.35346555743696   -0.67008899364125
O          -0.05979689556513   -1.91056294982754   -1.76392734324035
H          -1.03645756052798   -1.98625045884534   -1.67283432135668
H           0.06735956044916   -0.98278131357778   -2.01313459953761
H           0.69114786058229   -1.97659740382739   -0.36002120550310
O          -0.21824422651782   -0.56854746502358    2.35730682599181
H           0.35943873596757   -1.19606450663666    1.89211945595142
H           0.33477573529796    0.88059396004797    2.13309491448722
H          -0.92510534752605   -0.38955881099853    1.70387002101903
N           0.70515591028150    1.81732271142123    1.76184748242174
H           0.00583212674271    2.18342723842986    0.99116002201285
H           1.59587551641917    1.63052063201232    1.29327164919340
H           0.81043694767033    2.50089883125729    2.50360546081948
