    26
        -50.44990170  Gyration_radius:  2.6907180001 Dipole_moment: 8.245
 S           1.32019437580581    0.72159369530635    2.49719477932990
O           2.25046296550529    0.25446892263784    1.35415287186006
O           1.97979036290626    1.72953048406313    3.23980337191588
O           0.09703844487066    1.31794278995107    1.72248268726671
O           0.80770019345660   -0.41938014836327    3.20796021359064
H          -0.20837643238561   -1.41953376072367    2.46069547625514
H           0.47713582293476    1.80269038791792    0.91964096489651
O          -0.74041144748912   -2.03572109903876    1.89427435198624
H          -0.92302089755853   -2.80331137322021    2.43822027949938
O          -0.16873983391423    0.07435304947890   -1.47971946082327
H          -0.55906147044783    0.09029866326927   -2.38142713589812
O           1.14666628760488    2.13892264357359   -0.44495598529281
H           2.04942270119462    1.84037862006225   -0.29797127155984
H           0.70124161849148    1.43413173849312   -0.97659151108030
O           1.20933102297653   -1.63892219498172    0.05078228748123
H           0.49661688655959   -1.97043256878172    0.63044276839771
H           0.76490952795870   -1.12434152471229   -0.65626399881107
H           1.87635902803379   -0.56976017212414    0.85699810885822
O          -1.99872451007020   -0.04118353641287    0.45331590540340
H          -1.78479272367621   -0.86853094194958    0.91400100083499
H          -1.61948009688737    0.65155226113354    1.00947942677679
H          -0.93422430052460    0.05667592456054   -0.85575570938366
N          -1.41800607474904    0.17543940802249   -3.90958174434494
H          -1.28643721507755    1.08179444339078   -4.34125259440847
H          -2.40795902879821    0.05409890193933   -3.73376979718728
H          -1.12763522672075   -0.53275459350171   -4.57215528550727
