    26
        -50.45499948  Gyration_radius:  2.50028959061 Dipole_moment: 4.584
 S          -0.29560589520252    0.65803916000807    0.83456245992105
O          -1.15470962716891    0.08476863142283   -0.20294031256793
O          -1.17213192819237    1.04435759665975    2.04098185540030
O           0.69931869466938   -0.32197113302263    1.27130032078293
O           0.34653377388337    1.87522306800869    0.35154860266837
O           2.79779249821441    0.68868596726580    0.21313284914666
H           2.09225564911976    0.15725128261600    0.67864051727728
H           2.54415770343646    1.59651021660935    0.41853214906847
O           0.17038091487580   -1.16352714522542   -2.00203619887788
H          -0.39831115892015   -1.11360018482907   -2.77400264128460
H          -0.34414223260405   -0.72870996926914   -1.25921834409986
O           0.51910528721950    2.41193816710664   -2.14550357948567
H           0.29877951424111    2.24374022799010   -1.18502806932985
H           0.79809919532404    3.32785389947881   -2.19879246658385
O           2.10490682667208    0.44026841909214   -2.17796004214206
H           1.53863706583231    1.29335616538841   -2.28910176805562
H           2.49572829804827    0.49945724069897   -1.18824861942869
H           1.38796493845388   -0.31456531182942   -2.14846641901153
O          -1.03921751700129   -1.27565358525946    3.08901292713728
H          -1.65149331642024   -1.74878078092647    2.47274256093969
H          -0.17288791728752   -1.30258070179609    2.65533057790486
H          -1.22556623529065    0.19630134222285    2.58457709265142
N          -2.49023433525928   -2.14225904403157    0.99815517663211
H          -2.11634868133627   -1.34899795259609    0.47503237121181
H          -3.49969402604427   -2.07105112342901    0.98623793917054
H          -2.23331747925892   -2.98605445235712    0.50151104095415
