    26
        -50.45720833  Gyration_radius:  2.51182941908 Dipole_moment: 6.169
 S           0.50198858214245   -2.11415761911074   -0.58680714440346
O          -0.87764861534318   -1.59737897715891   -0.71631410586419
O           0.84789311496911   -3.02316185533594   -1.62792495226535
O           1.42094698599804   -0.94779782433895   -0.53269918957752
O           0.60077449922701   -2.83140083015559    0.79171446074220
H           0.37383759218092   -2.19030910961499    1.51026089611643
H           0.89419164485189   -0.24081214748190   -1.83526826447817
O           0.15577536685413   -1.09751072392795    2.74467219543266
H           0.61645968412505   -1.43771942846882    3.51316997205822
O          -0.73475683813321    2.18561591220624    0.65797855984888
H          -1.21453332430773    2.85016551344457    1.15443777321320
O          -0.37965839510781    2.58459784207296   -1.94880816904994
H          -0.57687830744865    2.47200765975710   -0.98816206511121
H           0.38213749000618    3.16472966631286   -1.99827331041220
O           1.50693046409337    0.73396930051547    1.50460855723062
H           0.84890479605511    1.39067671326784    1.22665622589117
H           0.71832403703522   -0.35027605856995    2.37915550779119
H           1.62538127582887    0.14017198119571    0.73051807461143
O          -1.89796077068775   -0.07002970944401    1.15420490071744
H          -1.63048321180236   -0.67585174850491    0.42455686752207
H          -1.47017681699950   -0.43535668442441    1.93954732781116
H          -1.22886600410452    1.32138692130445    0.81353792485135
N           0.07844070455261    0.01024370898157   -2.47822800689478
H          -0.14760566782183    1.03686643022672   -2.40242272755135
H          -0.64990317016695   -0.58407002982797   -1.99734625889186
H           0.23648488402306   -0.29459889288456   -3.43276504932772
