    26
        -50.46011203  Gyration_radius:  2.39802939318 Dipole_moment: 9.009
 S          -0.73950309444694    0.75614756680218   -1.64834807948862
O          -2.17030002056020    0.85953490984321   -1.34394150203746
O          -0.31626301019672    1.24334921812197   -2.91734078726178
O          -0.03256511107228    1.71159189003265   -0.56286005068983
O          -0.26852554209251   -0.59204830531789   -1.32689240683590
H           1.18834829401377   -0.61839268566573   -2.21575332806826
H          -0.36303769584021    1.47047308183893    0.32147211173800
O           2.03212768649682   -0.31842788836053   -2.60376269591562
H           1.76052226922605    0.38863296402090   -3.19788175927898
O           1.44173509177008   -0.69678548315343    1.74419275052211
H           2.15388110841279   -0.91566808499913    2.34668319952844
O          -0.53546357702994    1.05460592730738    2.03508196924373
H          -0.18949352280824    1.81186317212369    2.51049384014367
H           0.18602532505301    0.37937649892663    2.01834559113678
O           2.50193608461773    0.68741552758817   -0.17698239234549
H           2.58658878998698    0.22039128164781   -1.03867186784213
H           1.78255866620956    1.31680744825334   -0.33625315436262
H           1.87885281456633   -0.23992730053028    0.95980117269515
O          -0.55134958604794   -2.28512942083258    0.63685180832077
H          -0.37155449146555   -1.92557382081672   -0.25595198724673
H           0.18328091764698   -1.93589362222498    1.16810794735779
H          -1.77064775740505   -1.30913865988870    0.76727068951805
N          -2.45705849792906   -0.48423412384127    0.79487442697337
H          -2.13113479939233    0.16133130761543    1.51935009630250
H          -3.40767736230669   -0.79137614792166    0.96955941126797
H          -2.39128297941602    0.05107475942279   -0.16744501338502
