    26
        -50.47229296  Gyration_radius:  2.48024972663 Dipole_moment: 1.995
 S          -1.92543890210829   -0.80034625575899   -0.91939514475197
O          -1.13136983812926   -1.31008615934964    0.19447058580944
O          -2.28450463400925    0.59013549693409   -0.72926105150828
O          -1.30110290882489   -1.07821800686301   -2.19825075614708
O          -3.28434674395769   -1.61587224964438   -0.91669031768264
H          -3.02696502098228   -2.40907152898091   -1.37432534778768
H           0.03350128604219   -0.19693030657462   -2.26634479223170
O           2.27375465054635   -0.22060549378210    1.49791119736882
H           3.10003288109733   -0.54046327131664    1.86042950624503
O           0.90037105195204    0.28411089391292   -2.26360654537063
H           1.02546773276636    0.60437626479666   -3.15832852032175
O          -0.29202956057135   -0.24321228719112    2.51886908280676
H           0.66927208253860   -0.27901683254799    2.36454952485553
H          -0.67806007719007   -0.80426667269569    1.81878938311797
O           1.41719200959497   -1.76227418866022   -0.42025643270692
H           1.49863573722364   -1.22188551371538   -1.21810362226380
H           2.00533476426291   -0.87111219503621    0.78662660754220
H           0.46028057332952   -1.74570670826419   -0.20917763093756
O           1.50474254881001    1.87357554908671   -0.11541414255108
H           1.94016234481101    1.23930008664753    0.48228890726381
H           1.32765317795644    1.37599969069167   -0.93611609763960
H           0.07697135639892    2.02791707072382    0.57710086348660
N          -0.85793005369112    1.85816429647012    1.05359060118238
H          -1.50048416978833    1.41206838773290    0.33973588216508
H          -1.25884038611553    2.71110390449198    1.42528477327247
H          -0.69229988198348    1.12231602893701    1.80562349678712
