    26
        -50.45720843  Gyration_radius:  2.51183310589 Dipole_moment: 6.171
 S          -0.58234725943672   -2.15827051901744   -0.26620608674824
O           0.59329910898982   -1.78308047565056    0.54905217938865
O          -1.27245931880912   -3.29105320590506    0.25383207495463
O          -1.46161573391182   -0.96523495915252   -0.37116254906205
O          -0.06939639914206   -2.46948476550301   -1.70311351392801
H           0.39425840380771   -1.67327575512189   -2.06323409976199
H          -1.55307033198461   -0.66932081508248    1.17212164279968
O           0.82205747975480    2.22981093428923    0.31814326792781
H           1.42591842364065    2.97151598496551    0.25889392734622
O           1.03619042069709   -0.30360942840604   -2.75500060207339
H           0.94781464265573   -0.39395369652585   -3.70500796622524
O          -0.58949721448843    1.93488143520509    2.55479759865576
H          -1.33507340197653    2.52750446906116    2.44387473571605
H          -0.01012521750550    2.07257767350295    1.76763990968774
O          -0.80006858296642    1.20733987064119   -1.72382469626172
H          -0.34802872439760    1.72038831859391   -1.03531939358934
H           0.33394398763882    0.35145107931580   -2.46153379011250
H          -1.19160854728338    0.43523300940700   -1.25878162137647
O           2.20597993198259    0.12157114100790   -0.25433206249338
H           2.15544035547313    0.00966390750239   -1.21252943682873
H           1.38237805957252    1.40971007233456    0.14888342807440
H           1.69680864805903   -0.63960391553612    0.10929319555249
N          -1.08465499183058   -0.65250069560814    2.13216573997399
H          -0.90316437146818    0.34022966068129    2.43604421245130
H          -0.19238326894968   -1.14014495007464    1.84651366056223
H          -1.60059611774118   -1.19234437507417    2.81879023494955
