    26
        -50.44707812  Gyration_radius:  2.51014348975 Dipole_moment: 4.737
 S          -0.21543523072564   -1.68864062488502    1.74445424092500
O           0.61711119589254   -2.06178060525920    0.62785277543370
O          -0.12808410129382   -2.47248300943290    2.91720910673237
O           0.08249873429012   -0.18335120344552    2.05024538604102
O          -1.69470694712341   -1.63712296154031    1.28235047528495
H          -1.79538849353833   -0.91684703414980    0.60442762985765
H           0.84501442692948    0.08178959352066    1.42801580335552
O          -2.00208226886396    0.38878437812815   -0.32828910412308
H          -2.92640573669165    0.48540937999089   -0.56446063313219
O           1.91827370805603    0.28310741669998    0.36398233216578
H           2.13238057562518   -0.65516241604296    0.30564990658218
O           0.85025657742804    2.96863866665538   -0.04140353685328
H           1.61903203747878    2.55290980776712    0.36019922675793
H           0.71526814771674    2.51438350268621   -0.88326530754695
O          -1.29724051555383    2.17538271440604    1.38425370577445
H          -0.88699740218621    1.59762562013651    2.03932604218887
H          -0.55902273814340    2.63584821926576    0.92671768746934
H          -1.79906804965074    1.12692694731118    0.33365272756640
O           0.36885000278778    0.68821682648381   -1.72604826796690
H           0.52837571724272   -0.20385893665771   -2.12507982589442
H          -0.52900111834381    0.62649966295680   -1.36179404248849
H           1.38781309541706    0.47267771551587   -0.46069818200604
N           0.67651737049144   -1.91967668650541   -2.26187565940937
H           0.64756756686397   -2.15270313558819   -1.26900694228092
H           1.53582392232037   -2.30026560566801   -2.63867715786923
H          -0.09135048643628   -2.40630821235611   -2.70773837657320
