    26
        -50.45018986  Gyration_radius:  2.49704533203 Dipole_moment: 5.268
 S           0.98225741617882   -2.11469075836709    0.62709858214556
O           1.94853106621703   -1.40895513728707   -0.18434537472545
O           1.16792059626454   -3.50610537296814    0.79536307253079
O           0.88031479204975   -1.44645887127962    2.01245508270002
O          -0.42637059751073   -1.80758366148280    0.02401749096087
H          -0.26606851555407   -1.54900515094484   -0.94823889493416
H           0.82142094992273   -0.44732192151558    1.92782718645609
O           0.68225723264711    1.12156625022852    1.89534393458659
H           0.51714589829060    1.43948211496552    2.78442178902805
O           0.26477765221476    1.59600739126987   -1.86951322310030
H           0.43756253818439    2.25909255072372   -2.53884588402677
O           0.28242963867350   -1.06487277967191   -2.28666106686405
H           1.19794735820161   -1.23103480921441   -2.02030978094875
H           0.17101170498005   -0.08909706323927   -2.26273716747891
O           2.33492898936591    1.24236616772866   -0.31899840615399
H           2.00138943628515    1.46518814350325    0.56132591852565
H           2.39170636705825    0.26805736302189   -0.31557150978363
H           1.09256203552450    1.53448631878989   -1.31024722973886
O          -1.29633479668518    1.80764734683029    0.41778634746982
H          -0.12054571761063    1.40364778103899    1.33874223918949
H          -0.90685847659852    1.80153519052663   -0.47198044631342
H          -1.96422910998448    1.07829467637139    0.43033124288096
N          -2.94124348767295   -0.33630744544342    0.43501484144792
H          -3.49808767725650   -0.51362514742614    1.26135211591288
H          -2.21495897046550   -1.04559223917216    0.38901198653497
H          -3.53946632272645   -0.45672094698429   -0.37264286630417
