    26
        -50.45347627  Gyration_radius:  2.54099485878 Dipole_moment: 3.070
 S           0.64249963166974   -0.10913771633075   -0.74725247991295
O           1.10819724586129   -0.58246787776679   -2.01833121963469
O          -0.63466095335157    0.61611807358962   -0.82103520001316
O           0.38537147459046   -1.31726074017389    0.21055764539025
O           1.63117713333944    0.71440030525599   -0.03493063794829
O          -0.03570293601546   -2.51741099580095   -3.44314708010151
H           0.68041315693851   -3.06566739440955   -3.76732026238260
H           0.39668614823335   -1.74701749257086   -3.01777761448534
O          -1.50425827858934    0.28033190802413    1.55636181509986
H          -1.28017610720044    0.42728131731327    0.58935527413091
H          -1.03441759325262   -0.52951997656806    1.78447023589486
O           1.88494286468441    0.71293619283261    2.52402549128858
H           2.76842767439912    1.03921851049082    2.70386713963201
H           1.84391093225398    0.55980903157779    1.53957068690464
O           0.37155192439004    2.96982709950081    0.12486124745379
H           1.01466581405228    2.22902370361858   -0.02178398436282
H          -0.37553207914660    2.71122879775552   -0.43075194551527
O          -0.16224040111831    2.19758974640498    2.45171433774402
H           0.02633096798912    2.67173891469948    1.52661580805976
H          -0.83746066020041    1.43399188650877    2.19028538499811
H           0.70354591221007    1.67239050339068    2.64232833188845
N          -1.61553064555265   -2.13510057688937   -1.12519905708681
H          -0.40264778621972   -1.79014231838162   -0.26722147803165
H          -2.38591064388098   -2.71613635122656   -0.82120120529253
H          -1.96215742552524   -1.20699332933968   -1.34064591844869
H          -1.22702537053665   -2.51903121149226   -1.98741531527530
