    26
        -50.44867319  Gyration_radius:  2.53125308045 Dipole_moment: 6.585
 S          -0.91673070857220   -0.04833673398711    2.42622508810560
O          -0.28666198308600    1.03245540546156    1.69887015959811
O          -1.65131605094359    0.29177191240555    3.58401689311554
O          -1.80233795173508   -0.82448305199921    1.39512614162279
O           0.14369809745258   -1.10868158532680    2.77946424415858
H           0.74843009344313   -1.27663079634563    1.99280545212170
H          -2.13089908605097   -0.10752153108663    0.74827497359644
O           1.72440609692857   -1.48913076880902    0.77442392618018
H           2.53391346393897   -1.89730133746371    1.08655373739499
O          -1.06180219501801   -0.16059115868492   -2.29201858495528
H          -1.68626726985525   -0.47266340776019   -2.94876791478438
O          -2.19464744964634    1.09704039402979   -0.19315224316616
H          -1.48321774571063    1.54118876862250    0.29232667045264
H          -1.79997516932386    0.75991976993884   -1.02864697933392
O          -0.50452759543622   -2.18192251475058   -0.68720008971535
H          -1.10570940866649   -2.01414117273039    0.05193372304990
H          -0.80480782866594   -0.95666124970650   -1.75808621982807
H           0.38762651064964   -2.08298468643409   -0.31945221417792
O           2.10179228172835    0.99930916344820    0.44377695700301
H           1.95045433987414   -0.50979489327676    0.58077850262936
H           1.86679920194049    1.26867620229025   -0.48129647508797
H           1.32945252328097    1.23880275243707    0.98449503766658
N           1.26767955502735    1.67052088374945   -2.03700506209883
H           0.48721261044544    1.05359661898694   -2.24507346806957
H           1.95818755562954    1.55406288290916   -2.76758075353570
H           0.92924812235881    2.62350012403400   -2.08079150197961
