    26
        -50.44867325  Gyration_radius:  2.53121415486 Dipole_moment: 6.585
 S           1.15663296861540    1.07929222360858    2.05557648715314
O           1.70689009562686    0.73677113960722    0.76171438274916
O           1.89108005320681    1.98585057700306    2.85222878285630
O          -0.29955616874490    1.59336581401110    1.80027064111074
O           0.89099908926576   -0.21211731364844    2.85266380811702
H           0.46836102491698   -0.90887451021313    2.26230614604953
H          -0.25151129305134    2.06054345073588    0.89478973696118
O          -0.13927518721092   -2.01099797526558    1.31428442066029
H          -0.01919877023950   -2.87329976715375    1.71595478735920
O          -1.80763242409673    0.74941582976387   -1.60429426177466
H          -2.61693475368862    1.18879422469040   -1.87007244346352
O           0.05912866030002    2.39458739848991   -0.56571319800364
H          -0.57880155391200    1.84189792615584   -1.07077440100833
H           0.88940428817646    1.89648914579387   -0.52559351125191
O           1.62249272157070   -1.65769665930541   -0.47880144600029
H           1.90051368533088   -0.80271012023883   -0.10724776559852
H           0.53840164205387   -1.95150348102981    0.54943315730188
H           1.19847021406691   -1.43932214068380   -1.34821627487126
O          -2.18439536196532   -0.23496368838196    0.81659630378359
H          -1.79059969388499    0.45429997082847    1.36952034297439
H          -2.00390854141503    0.31710054154074   -0.73283878320998
H          -1.62893361857690   -1.01893380042696    0.95019529091187
N           0.38767929885051   -0.89268892506305   -2.75723132200856
H           0.97152605398277   -0.29031104906437   -3.32364535320029
H          -0.42419891711362   -0.35489669101860   -2.46628531820020
H           0.06336648785781   -1.65009213073188   -3.34482018941993
