    26
        -50.44867324  Gyration_radius:  2.53125370127 Dipole_moment: 6.586
 S           0.99956785082893    2.13423329850070    1.08320602840639
O          -0.36531276390281    1.65333328427141    1.08098149368191
O           1.34130388701127    3.10786205530649    2.04818927011911
O           1.91820056526678    0.87187342871766    1.19531024051304
O           1.35848953483826    2.65110332809485   -0.32304387433050
H           1.01882331880550    2.01766207762760   -1.02736442116801
H           1.38748280281273    0.21901207667632    1.77192682367927
O           0.26866748747516   -2.48126190525009    0.41499633746472
H           0.73642366315891   -3.28712705741401    0.63967620372910
O           0.43189628602529    1.04869685712201   -2.12227278914327
H           0.38659035207340    1.51127353051955   -2.96090064339624
O           0.25745395721826   -0.62288112149250    2.36853456592697
H          -0.39959889065124    0.04591488665212    2.12339284167768
H           0.15886402302333   -1.36427912272802    1.72971123906777
O           1.92769549248472   -0.94088553430085   -0.94391866380347
H           0.88274384292779   -1.96069649862888   -0.16532286577844
H           1.43304266591164   -0.36784933284715   -1.55050740494545
H           2.25838666240605   -0.35327525004808   -0.25020148532561
O          -1.87195278862222    0.99348626575026   -1.05792389184834
H          -2.14228936461694    0.06088438174255   -0.85653488157138
H          -1.54575476521803    1.35354418879303   -0.21513532617608
H          -0.52904343459659    0.98345749208656   -1.77574578857413
N          -2.44426001103640   -1.55927131457443   -0.38201845354975
H          -3.05033910871550   -1.61282300884883    0.42697878416154
H          -1.55601283647400   -1.98674042385693   -0.13418287644229
H          -2.86106844845387   -2.11524656191267   -1.11783047228807
