    26
        -50.46100995  Gyration_radius:  2.42020467372 Dipole_moment: 3.535
 S           0.97232365110807   -0.78447250358991   -0.55932532155315
O           1.16555570084014   -0.70281209566571    0.87885640270755
O           1.49124540355605    0.39741949569678   -1.23717206308156
O           1.75206609027653   -2.00779406494082   -1.09616123714693
O          -0.44787559529906   -0.98473133783477   -0.88156813176840
O           0.09541697429217    2.26679637403329   -2.45565118394502
H           0.71825253252430    1.54994810132194   -2.19898251636291
H           0.39088889568356    3.04891118546579   -1.98182967858379
O          -1.00396684868494   -0.34023636975329    2.27927072114125
H          -0.70594166651162   -0.29695441098019    3.18954827064208
H          -0.20210958677944   -0.53958205200771    1.73633458317483
O           1.19276566121872    2.20490592018219    0.67246615007369
H           1.62576466654740    1.83551903017613    1.44504308386997
H           1.39228418134491    1.56587758013336   -0.04476203783126
O          -1.43880108775255    1.94803701279269    1.01149784533153
H          -1.44410270792659    1.12506210874394    1.55746739101084
H          -0.48615698637298    2.19618892453876    0.93535949363461
O          -1.82461099923364    1.06170550997098   -1.27465789949619
H          -1.33565035489918    0.15102091833112   -1.16187378112340
H          -1.77013657726726    1.49166753761009   -0.28189449050028
H          -1.18612029103510    1.61293000364821   -1.85049072315114
N           0.15396108691303   -3.48791391082299    0.33268892545699
H           1.29505685416407   -2.75951114668962   -0.62296928544341
H           0.38202762873148   -3.31825774217467    1.30352771968048
H          -0.55337480214347   -2.81288091946743    0.05773749498507
H          -0.22876180329184   -4.42084313871855    0.24754026828960
