    26
        -50.46919482  Gyration_radius:  2.46724924868 Dipole_moment: 3.371
 S           0.78757561183780    0.24920740773822    2.25268373176060
O           1.61120847480835    0.30570433016033    1.05152479098643
O           1.48191722517559   -0.08808177618977    3.45114321081787
O           0.21756844114185    1.73445374768877    2.46763157550533
O          -0.42032034982775   -0.54664362680763    1.98847678732088
H          -1.33933553817041    0.48959144416719    1.12208519482774
H           0.78192177630215    2.02572546553178    3.17448367214628
O          -1.85125531234920    1.08736302434351    0.52647399733091
H          -2.32617304256345    1.68571899945910    1.10467037258720
O           0.46388207357965    0.35692535216176   -2.63048965074662
H           0.71158547681472    0.79630139615075   -3.44406511332229
O           1.88785220570879   -1.37547997756914   -1.02673102094216
H           1.54765152953539   -0.80849911847915   -1.74332219766252
H           2.02371341335089   -0.77419779004043   -0.26816341349445
O           0.47262220226723    2.00271350522686   -0.62360830098497
H          -0.43112923306825    1.92716186445208   -0.27323714977798
H           1.01614098117426    1.49323214805005    0.01299927091333
H           0.49868808270642    1.05363415038472   -1.90949554721158
O          -1.88766833418849   -0.64472240363943   -1.64109459245397
H          -1.10812055975682   -1.71030553921421   -0.73856841968462
H          -2.08912005836658    0.04010346454359   -0.98275374371205
H          -1.14779929536650   -0.29099218705567   -2.16994994987376
N          -0.41212934610802   -2.17959905065175   -0.08473026511254
H           0.56296776858010   -2.03277956123482   -0.50262692999487
H          -0.62622856821530   -3.15791234635579    0.06815800375161
H          -0.42601561499979   -1.63862291282858    0.81850569700771
