    26
        -50.45007693  Gyration_radius:  2.5058648518 Dipole_moment: 4.974
 S           1.25465024103000    1.31386225520572    1.64598813836614
O           1.90598091615376    1.47244031990223    0.36405045589262
O           1.51558632043772    2.29551788126116    2.62923167100574
O          -0.27535028398324    1.19049534513475    1.36273780391707
O           1.58149373854106   -0.07976112025554    2.22235514429654
H           1.40349525986024   -0.78903617469349    1.53791067522964
H          -0.43091470468579    1.65104305713186    0.46534294399401
O           1.22372333275869   -1.90803466876991    0.42074655000057
H           1.81014314424195   -2.64321736334135    0.60836026686477
O          -0.42828089062630    0.04118017150354   -2.41987608610505
H          -0.87631787849817   -0.05597821605230   -3.26064114361819
O          -0.33329263653280    2.26307272211907   -0.92405170540255
H           0.62140261982587    2.40051519925054   -0.85235649326257
H          -0.44822503367638    1.50930487171091   -1.54606410975902
O           2.11771647881112   -0.44505608459881   -1.49204902356728
H           1.32074477230058   -0.26064333284235   -2.01967776392680
H           2.23473689662113    0.33124996830678   -0.91176321180449
H           1.61385450514922   -1.42507467586753   -0.37851086399343
O          -1.32667431101283   -1.74027241381438   -0.76473440570466
H          -1.92179655090820   -1.31331741789972   -0.10204800659638
H          -0.81931825852713   -0.65519544745749   -1.80942076154801
H          -0.52782960974799   -1.98098875291079   -0.27424759614890
N          -2.72345292500707   -0.45627764947211    1.16994361269047
H          -1.96600628903047    0.14396037295197    1.48334432053438
H          -3.03782640513027   -1.00085737118788    1.96312997805510
H          -3.48824246836044    0.14106852468560    0.88229961058466
