    26
        -50.46999399  Gyration_radius:  2.46225531207 Dipole_moment: 3.122
 S           1.20659398473585    0.33027356688391    1.82677057958367
O           2.55758582002301    0.35744713840084    1.32110733477403
O           0.38649429243901    1.45787228441849    1.46586690039711
O           0.51435315499142   -0.93426974787100    1.51579911457772
O           1.35499450426733    0.33252910632352    3.41322645759991
H           2.30183768780806    0.34044283724056    3.50461058915575
H           0.93445105293276   -1.69000114095951    0.12116665691222
O           1.12037514759064   -2.07179440985886   -0.77086979605843
H           1.71038252937525   -2.81299829688206   -0.62937706445392
O          -0.57656656909770    1.30563751112990   -2.09151254500975
H          -0.42035983285123    1.85790128246144   -2.85844229991962
O          -1.89124885292173    1.97645765413504    0.22248696092190
H          -1.08531070041975    2.03972644171885    0.77223188458943
H          -1.55018480058818    1.92695750680121   -0.68908365570992
O           1.78554370372699    0.57409356934137   -1.22015337424739
H           0.31962194826024    1.12215502494135   -1.70203898218968
H           2.12423204439765    0.69478948105748   -0.31430265807932
H           1.72069504603712   -0.38772639874278   -1.32715114201989
O          -1.32224240305282   -1.33023540964238   -1.83549129694478
H          -0.45932764482556   -1.73351034474533   -1.64359713432834
H          -1.85340082893164   -1.00471088991572   -0.35324375289817
H          -1.12693746912222   -0.41908069893566   -2.12305905004502
N          -1.94908105664877   -0.60402029608190    0.62546085710790
H          -2.69897196278630   -1.04002824524466    1.14871473799912
H          -2.08566159556003    0.45549081988127    0.52094174563342
H          -1.01786719978823   -0.74339833586106    1.09993894264570
