    26
        -50.46999439  Gyration_radius:  2.46231121888 Dipole_moment: 3.111
 S           0.13444603020960    1.48422468878143    1.63748765541527
O           1.53192260476548    1.44672107432671    1.99427776490304
O          -0.16226281099323    2.06714611922718    0.35428513106848
O          -0.51680230943454    0.16793476438605    1.77147317435937
O          -0.55553792277323    2.39348054821896    2.74931499830723
H           0.19443731477776    2.61361667763617    3.29139334533456
H           0.41332899826919   -1.15570021626880    1.49627561249546
O           0.95731133621375   -1.93311483769327    1.22105931988200
H           1.24327049312222   -2.36159637626226    2.02857966147741
O           0.82825014179101   -0.19693198687909   -2.38450010332973
H           1.45372214352701   -0.14875184348167   -3.10840095854190
O          -1.33972962912874    1.42287720901262   -1.92644280742509
H          -0.93447681641743    1.91253667747829   -1.18362707065266
H          -0.59481487203903    0.93088476717954   -2.31726387253000
O           2.22818030767527    0.08034636135127   -0.18507615385042
H           2.05377689387421   -0.77300614058151    0.24169896548448
H           1.34626929575636    0.01750714792250   -1.56342178755329
H           2.06914166695837    0.73871617939025    0.51569694712110
O          -0.40924831618717   -2.32260977979405   -1.15175147702385
H           0.06834961356119   -1.70898389347536   -1.74031135479866
H           0.14229232094472   -2.40245754330276   -0.35581172044334
H          -1.55624373504840   -1.31895272275092   -0.63961295018126
N          -2.06575852186426   -0.46323651889099   -0.27119775395110
H          -1.93334596486889    0.31874169945028   -0.99448110322582
H          -1.55375954508059   -0.15976603495550    0.59908738102763
H          -3.04271873760210   -0.64962603002808   -0.07873083336460
