    26
        -50.45860907  Gyration_radius:  2.40819255847 Dipole_moment: 7.096
 S          -0.53674436213055   -1.35187184867106    1.31341532330741
O           0.57629212231767   -1.66247974429948    0.39415829223813
O          -0.09896893860427   -1.01080649254751    2.63358576560098
O          -1.21370315485430   -0.03486166190808    0.68891053224302
O          -1.59545119565785   -2.33128608276707    1.17718718858360
H          -1.68221316722720   -2.43119252619991   -0.44415351366967
H          -0.74315513803499    0.78475487826110    0.95355834333446
O           1.77465620393365    0.92413043295050    2.31213289971528
H           1.20600180262635    0.17224389912233    2.56527759101663
O           0.75168785485566    1.67712287102163   -1.54031322940525
H           1.27826512563801    2.22065101549639   -2.12767880811873
O          -1.56624853649434    0.24475629932094   -2.00472681136507
H          -0.71878554801198    0.72326671116275   -2.06097828781315
H          -1.82845613596009    0.35241746878812   -1.07805933111353
O           2.36292729352825    0.19918331228548   -0.19993385278640
H           2.40579974506279    0.57954560121530    0.70465644483081
H           1.84245395564232   -0.61514806664645   -0.05601956897039
H           1.41256306666125    1.06968874181656   -1.06420107350395
O          -0.18516499151617    2.41031186560592    0.86979567916292
H          -0.91230310395097    3.03107942544116    0.80181532621275
H           1.18077747830168    1.67064257303382    2.18024977957984
H           0.17726163787439    2.28821521353534   -0.03674684457859
N          -1.13444349755423   -2.29446351933171   -1.34152115678377
H          -1.39189981881905   -1.38124881478027   -1.80344086728815
H          -1.17383204212663   -3.09074665665976   -1.96804791388708
H          -0.18731664555596   -2.14390489527149   -0.86892190656362
