    26
        -50.46092009  Gyration_radius:  2.40601376152 Dipole_moment: 8.111
 S           0.01056053550093   -0.05969039582785    0.92940537129678
O           0.19973125871591    0.11755717995048   -0.61867147300506
O           0.02829668225568   -1.51964022892844    1.14086290465866
O           1.20741695172789    0.56245202188378    1.49292012974669
O          -1.22839456772744    0.53807190213856    1.33893300066429
O           2.34406401290597   -1.12785058946569   -1.67209224462293
H           1.57205371255112   -0.58577800378037   -1.40974436075583
H           2.03530721215692   -1.71466819349737   -2.36484134658870
O          -2.02821623576659    0.21842856423074   -1.68562014780591
H          -0.73890437453496    0.15640663849447   -1.13597239549996
H          -2.44103380006801   -0.48910282058750   -1.14252908643093
O          -2.54458754129119   -1.61179785991661    0.22074703839763
H          -1.63826304657631   -1.76019823231700    0.54026896934373
H          -2.94394459354639   -1.05052465602539    0.89195456482334
O           0.45011966037160    2.84780057474872    0.07102067011407
H           0.69078295481990    2.18715474637473    0.73580358789182
H           0.83901049596429    2.54052315761641   -0.75102330208549
O          -2.31436787444257    2.40418563552162   -0.24059741348872
H          -2.13607731827354    1.83233618671584    0.52641519092998
H          -1.49723628013955    2.91992051692178   -0.31510115852945
H          -2.30971068481548    1.08704777875305   -1.29005701933036
N           2.54827838614240   -1.53337975634304    0.95466370378725
H           2.75527246442213   -1.52385539614954   -0.06813951152979
H           2.36211761150265   -0.53458280442069    1.26571754432134
H           1.53841009229947   -1.87688689450408    1.07449322489415
H           3.23931428584430   -2.02392906157559    1.51118358879305
