    26
        -50.46456601  Gyration_radius:  2.3951139536 Dipole_moment: 4.080
 S           0.65339417810609    0.55210786976073    1.56205190725158
O           1.80138181313711   -0.25164855302971    1.87858492740829
O           0.45180374812544    1.76519903775333    2.32533264092332
O           0.82842565477171    1.09086727092856    0.07819493179507
O          -0.59128567705846   -0.25102938865546    1.52702058177480
H          -0.75586899206708   -1.57921504578527    0.66488591001816
H           1.26964824895376    0.42553988856745   -0.51012924603223
O          -0.84718971716470   -2.35872064802966    0.05858671288298
H          -1.51529614767205   -2.92685788863173    0.44374325626031
O           1.96861542265845   -0.61107865944012   -1.56309544893125
H           2.87683600792582   -0.36474700741511   -1.74445597554579
O          -1.24475480705753    2.04441586083719   -1.54419232544098
H          -0.31641017106336    2.29406701726858   -1.50403797074841
H          -1.63046966654862    2.10115301150811   -0.02127461273092
O           1.91564367214281   -2.39853515510968    0.29224463987454
H           1.96548461544745   -1.72915925149670    1.00698715221340
H           0.98260313913848   -2.66152953195924    0.23780482471203
H           2.01301584426538   -1.39764988888930   -0.93593111996839
O          -0.82236991433663   -0.54518215664274   -2.05942436962518
H          -0.98744864561568   -1.23489981665098   -1.39634017974821
H          -1.22758072357375    1.08726585579500   -1.79061468014762
H           0.13192632346148   -0.57212328375034   -2.20503897933309
N          -1.75595824526622    1.96119816142102    1.03298086225062
H          -1.65769801351472    0.92649248077650    1.21415856579341
H          -2.61508812933396    2.36497806978616    1.39032099430782
H          -0.89135980787507    2.26909173109663    1.56163700080393
