    26
        -50.44859318  Gyration_radius:  2.50079203881 Dipole_moment: 4.926
 S           1.03573259261058    0.64023289110911   -2.19154886196014
O           0.80261346358498   -0.78601778270971   -2.23358243514993
O           1.26427251825656    1.29203618292895   -3.42432611812147
O          -0.17077164722250    1.27659313604946   -1.43667944117711
O           2.21927801148159    0.93301245933522   -1.23950315659470
H           1.95325849273203    0.74804932687927   -0.29499710086084
H          -0.79642765462142    0.50376348032327   -1.18378994872996
O           1.46448273904347    0.67619490763044    1.22701888161507
H           2.16991736198673    0.97044304477387    1.80571120799315
O          -1.52640838185223   -0.77822253430831   -0.87521917984608
H          -1.09823916607978   -1.27719584048270   -1.58176765833337
O           1.56203656006505   -2.69686875399329   -0.52394485698536
H           1.80037669360966   -3.48339493297094   -1.01568630996875
H           1.37366807347421   -2.00450780073481   -1.18818454301961
O          -0.44600230598834    2.38427952891983    1.14068942555934
H          -0.50667287145514    2.46960293767703    0.18205179060140
H          -1.21740457591532    1.81524365596014    1.40791218271585
H           0.74561041041597    1.39219829885101    1.25394436806635
O          -0.15184242869705   -1.55982729951301    1.22638529044695
H           0.43058581003918   -0.79951753518282    1.38896221196830
H          -1.09657981724059   -1.10164333834649   -0.03327066160658
H           0.42253332306839   -2.19741097495256    0.76564946389187
N          -2.38852966126547    0.60964641302172    1.68618309548549
H          -3.14740063890873    0.82153412300311    2.32113958681096
H          -1.91127332450904   -0.21601399186367    2.03073224827092
H          -2.78681356656994    0.36779040841617    0.78612048929351
