    26
        -50.45102750  Gyration_radius:  2.44959592269 Dipole_moment: 6.280
 S           1.15454766301678    0.80938529162600    1.46495297987845
O           1.44795512217245   -0.61299068640996    1.75804361482549
O           2.27431385680055    1.52912849080102    0.93543468136935
O           0.07450932356984    0.71965775678587    0.28081931721532
O           0.39021444973489    1.40822462087394    2.53848414803104
H          -0.84070695218953    0.26458780913800    2.54901266457107
H           0.63350728175088    0.49155062736137   -0.50928316799782
O          -1.73909195344087   -1.61564099290104   -0.05700564623197
H          -2.15553741943771   -2.47120901462494   -0.17392409106859
O           1.89030661033478    0.34024972479021   -1.52469546601159
H           2.41352915322148    0.87471543612781   -0.90636833434531
O          -1.93729400000885    0.95414365365554   -1.52235933825363
H          -2.15446013289924    0.01837799872489   -1.45978871484689
H          -1.41393998086939    1.12631391033793   -0.72618176656942
O           0.20985349445916    1.86470744420924   -2.96349214406718
H           0.17461288423326    2.81436851248591   -2.83806510736885
H           1.49724274090714    0.93845441480988   -2.19544827930107
H          -0.62971058145362    1.51315354511664   -2.60336272843548
O           0.83768735080964   -2.03374842616021   -0.42269812823269
H           1.20503002336564   -1.64562933004909    0.39834439496439
H          -0.77730842468651   -1.75061031105423   -0.28211115387542
H           1.26880298982567   -1.54195892632580   -1.13293816902021
N          -0.98830411511672   -0.77001047787014    2.41029193121905
H           0.05324007968454   -1.01205458132987    2.26147168102246
H          -1.47555677218341   -0.99026221874996    1.50842112611453
H          -1.41344272159393   -1.22290427141291    3.21244569642925
