    26
        -50.45260111  Gyration_radius:  2.49735017204 Dipole_moment: 5.347
 S           0.50901787350819   -1.28427740397411   -1.84155614248622
O           0.21787254368146   -2.13755071274462   -0.66194188200165
O           0.31261328052414   -1.95526483597379   -3.07970813646931
O          -0.29448507676175   -0.04452578952489   -1.71193012557057
O           2.00475527482707   -0.85199442303009   -1.72577773964173
H           2.11702969311338   -0.35240790634934   -0.88654482477771
H          -1.66235547666816   -0.58402525090308   -1.16514701480232
O          -1.89037132143997    0.23370966792336    1.68275856697266
H          -2.38381702437980    0.67169514229382    2.37652823548697
O           2.39945406596240    0.37802095774982    0.60839222099996
H           3.25460079057779    0.09221492448069    0.93477985729545
O           1.46080864146393    2.94171287838581    0.49325046587600
H           1.87759497069518    2.06458847940232    0.57891460706491
H           1.81510025793671    3.33374612436483   -0.30662415940141
O          -0.99699486006945    1.93544158030015   -0.02680567494102
H          -0.19201699623230    2.41735211944080    0.25221769062833
H          -0.70202732857696    1.33850640482845   -0.74033383651345
H          -1.54350431302049    0.96279296255642    1.07560255602302
O           0.58952899796195   -1.07603232015751    1.72268357786805
H           0.48176103352689   -1.60216631566321    0.89789745292188
H           1.71319907021653   -0.13005857578580    1.14046912690422
H          -0.25863120233320   -0.62700978380585    1.86510637315657
N          -2.16293466010457   -1.27728162649549   -0.52017436691343
H          -2.31521633188492   -0.80989963682896    0.39829883151111
H          -1.34647713572660   -1.95743166077085   -0.44474914121954
H          -3.00450474679811   -1.67985500973533   -0.91560651796128
