    26
        -50.45807526  Gyration_radius:  2.42059139547 Dipole_moment: 7.663
 S           0.60002437325825    1.00431631474096    1.86212110662525
O           1.75187456774558    0.94623194899891    0.97374461320338
O           0.81914308276792    1.59726562505202    3.13509832860963
O          -0.52182009489788    1.82902194890723    1.08770663758598
O          -0.03091544843823   -0.34643068078034    1.96454937212839
H           0.31896719111082   -1.63281862093940    1.04526625405734
H          -0.04409649682208    2.27301599735457    0.33513206399371
O           0.40499698183410   -2.40506424315741    0.42758764605692
H           0.56417381438552   -3.17141359071915    0.97946876042156
O           0.25583719224065    0.31634070792266   -2.39058600634200
H           0.47012342741774    0.27824581611944   -3.32355610811815
O           0.89492569450034    2.58767516896622   -0.91718727753772
H           1.59618111299906    2.15988882037977   -0.39545697654648
H           0.61367461877767    1.92255079688268   -1.57081952027179
O           2.12090117925475   -0.78680706484807   -0.98141257359942
H           1.02564564256653   -0.11831781361430   -1.90676517722773
H           2.14443284193714   -0.14840576010830   -0.23424809669933
H           1.70096481960084   -1.57644561991235   -0.60627448002249
O          -1.51005288134267   -1.39203738728639   -1.25993074688754
H          -2.12137132192680   -0.63535993853503   -0.06057142139280
H          -0.97510466330417   -0.74314376626105   -1.76505378343242
H          -0.85840605066074   -1.95213781197649   -0.80029840415207
N          -2.31399422034708   -0.12871654101053    0.87205829526599
H          -2.39374640824553    0.87693226567306    0.72405884691783
H          -1.38990090179576   -0.25027288712508    1.44957477968933
H          -3.12245805261624   -0.50411369472293    1.35579387767439
