    26
        -50.45860916  Gyration_radius:  2.40820780128 Dipole_moment: 7.097
 S           1.39295591864916   -0.25255674419594   -1.35499033019964
O           1.60871805311027   -0.81338448326757   -0.00625775464680
O           1.01813734638979   -1.23961166480147   -2.32245483463172
O           0.13643739226363    0.73394676518297   -1.18035717107486
O           2.45718469112844    0.66900039177451   -1.69718377651737
H           2.56192811500385    1.50832390946637   -0.30885861955166
H          -0.71936150215122    0.25541403060297   -1.22312974623615
O          -1.73523933414749    0.19517540219605    1.64317880201233
H          -2.32131792867845    0.05262700547924    2.38746551880917
O          -1.06608171879540   -2.58820172902652   -1.22983936632829
H          -0.26920477527093   -2.26486923055777   -1.69163785517184
O          -0.11582088092983    2.34456039939645    1.01101287057501
H          -0.66282238228705    1.66269985746604    1.44245818090886
H          -0.20047554003760    2.14203680044238    0.06721519364995
O          -2.38572033307368   -0.07568528942008   -0.95038134349892
H          -2.94416099364318    0.63938609600566   -1.25939014559866
H          -1.76068140040972   -1.95050201397698   -1.42554226574296
H          -2.29493737128378    0.02807245699649    0.02384000849877
O          -0.39511800955009   -1.96249187649801    1.28826319368848
H          -0.77685153368450   -2.40270618015010    0.49750602679471
H           0.45972461482596   -1.63372971356523    0.94783864235340
H          -1.18452618591338   -0.65486362191224    1.56242196726014
N           2.37951745467956    1.46603001822384    0.73483525844428
H           3.17589955506029    1.74117908178217    1.29895552635465
H           2.15121481289349    0.42208826346212    0.76301521689229
H           1.49060190585121    1.97806208886996    0.98201684295972
