    26
        -50.45331705  Gyration_radius:  2.44711683378 Dipole_moment: 6.620
 S          -1.45943920687754    1.75792357827966    0.36274903170621
O          -2.27970156787641    0.71407465702668   -0.49907708576746
O          -2.36817885259296    2.30746347530836    1.30963502535449
O          -0.42235885419800    0.89574576292847    1.03241769424286
O          -0.79128405344303    2.67400706649381   -0.53532276578891
H           0.48809882633575    1.96443872730345   -1.09026285585355
H          -0.97585274428109   -0.33402153169787    1.16854700583365
O           0.34899452282726   -2.39954180902308   -0.57038952669808
H           0.74594988854618   -3.25448782828522   -0.73885758114408
O           1.22877466457850    1.46732397443565   -1.54313711226460
H           1.64170215683807    2.09798842689805   -2.13489841757662
O           1.83984753305219    0.32436804957546    2.30830028826758
H           2.32448197144692    1.11557777566981    2.54861234998977
H           0.98688695902120    0.62929420558709    1.94165271616211
O           2.24245403135833   -0.70737939722870   -0.16623729577749
H           1.11805120740478   -1.76383969629203   -0.39420022532891
H           1.97969928598108    0.08828451518431   -0.66122126225945
H           2.22147812075272   -0.43868485161180    0.77444016560352
O          -0.65010643680858   -0.35295089307472   -2.21183580960623
H          -1.69804493226804    0.37631060618613   -1.23797661460549
H           0.09936310919606    0.27153005517157   -2.15062007678483
H          -0.34608376691935   -1.17179720588838   -1.79061489559744
N          -1.47218150096859   -1.36347781283215    1.10876870542527
H          -1.61574725536260   -1.76872864671699    2.02676717269506
H          -0.83458129498208   -1.94097459067854    0.51683937148783
H          -2.35222181076253   -1.18844661271562    0.62592196828671
