    26
        -50.45061080  Gyration_radius:  2.47876360433 Dipole_moment: 4.876
 S           0.94662376534707    0.33348342470475    2.17988598861863
O           2.14530834254809    0.64837442901165    1.25649078419797
O           0.98587164688453    1.20525609115534    3.29498495993371
O          -0.28284500639130    0.66835820596439    1.27075854154322
O           0.86497831049033   -1.08023593074438    2.42711745595399
H           0.33431071895152   -1.93285624493023    1.15861683837382
H          -0.03189388100548    1.47264792796883    0.71512608565887
O           0.16363913167071   -2.42125495775835    0.31479259956530
H           0.19909767584504   -3.35340385554138    0.53573920840191
O           0.56322309619283    0.64704378236529   -2.24631309675571
H           0.51328786203357    0.79521313374775   -3.19119979380900
O           0.60683099520209    2.48238252419724   -0.28515884989536
H           1.51850046235857    2.50514748949208    0.02232198352074
H           0.59714805261242    1.92542381374927   -1.09506145996530
O           2.16156951235906   -0.92537637200677   -0.71625404792953
H           1.72013202884817   -0.37579779308069   -1.39303896616711
H           2.21937515709484   -0.03326008413874    0.48700380324592
H           1.51048387460586   -1.61062494347785   -0.46404899462246
O          -1.32590237675669   -0.97010645365257   -1.57218549681158
H          -2.00863232502020   -0.48564210521218   -1.05036109006401
H          -0.21660597433325    0.04815867440968   -2.01328064228062
H          -0.90296851131788   -1.57027859188840   -0.93905451829710
N          -2.98381803143683    0.36872161537235    0.10763152510529
H          -3.32177724864340    1.28626322689433   -0.15329682062512
H          -2.23565211808500    0.49538695738933    0.78269289590475
H          -3.74028516005604   -0.12302395398927    0.56609110719883
