    26
        -50.45521591  Gyration_radius:  2.43539319532 Dipole_moment: 2.494
 S           0.64645663255446   -1.74503617734271   -0.07162357276610
O           1.48062156252928   -0.76130524825205    0.58395728350833
O           0.23742861073070   -2.84166754384874    0.73982526200278
O          -0.57995002948670   -1.01783898204748   -0.65698950641346
O           1.34608216716272   -2.24834729520737   -1.34397935184522
H           1.76165982830175   -1.42516641514397   -1.73783338791205
H          -1.05476635822246   -0.38892062964681    0.07126816392560
O          -1.60915637420897    0.49272203704916    1.02166688175028
H          -1.51864581505156   -0.10130419692526    1.82298216039050
O           0.46759856439315    2.07217076538613   -1.82913479895932
H           0.52216264633141    2.82344060211410   -2.42157075413647
O           2.33217704294386    0.06630783393068   -1.84269343570976
H           1.66736978520433    0.76868454252389   -1.98240654669242
H           2.50661966776734    0.06817089747606   -0.89146438693908
O           0.65514220511164    1.79214143623621    0.94135413677914
H          -0.85814797739605    1.14205782877209    1.10180377369256
H           1.10770155999008    0.93032122631472    0.96502667064652
H           0.70041613466285    2.08352200360715    0.01679876710451
O          -2.01004525056497    1.09411867697006   -1.79945353264225
H          -1.80025004870832    0.15802595423105   -1.89366185509944
H          -2.31487103238075    1.19586189589396   -0.88969737230586
H          -0.46364584882790    1.74324889225421   -1.87446417124247
N          -0.93581426778735   -1.26972889168345    2.85850895812789
H          -0.54262483394633   -1.95591073001636    2.21443076625261
H          -1.57373895038115   -1.75632444887927    3.47636472801956
H          -0.16977960072241   -0.91924403376167    3.42098512046288
