    26
        -50.44340956  Gyration_radius:  2.45023793597 Dipole_moment: 3.506
 S          -0.40079816687681   -1.73989612940669    1.29856349029554
O          -0.02048626684255   -2.17968392772443   -0.04110869772187
O           0.72917930303822   -1.34521463596360    2.10726243189956
O          -1.47652148735214   -0.76661223300853    1.26686273897836
O          -1.02458390646672   -3.01880329784463    2.00414783525291
H          -0.26361306867966   -3.56208529692510    2.18516468353642
H          -1.94364602739740   -0.05770159192540   -0.02711021939955
O           1.16812423677661    1.53647793447209   -2.27626679830132
H           0.79090341036627    2.01663253415315   -3.01608239215471
O          -2.17880315060237    0.36849523762722   -0.90513030738284
H          -3.06439537798629    0.06801499075570   -1.11578189955423
O           0.15183813222790    1.28957341006481    2.24850670722711
H           0.50776035791695    0.38292672339261    2.25761316134681
H          -0.77555333158089    1.17966358369323    2.47381384861994
O          -0.10152045297703   -0.64760790294149   -2.01236356104346
H           0.09837194382186   -1.28964818257246   -1.21799852185286
H          -0.96888813871783   -0.21108436061266   -1.71741054979466
H           0.60321134166442    0.11970444809368   -2.02900990591261
O          -0.22387334955656    2.36838962376032   -0.21334795161848
H           0.78773177149154    1.93800413272305   -1.45065560207204
H          -1.06248954195338    1.92813872307367   -0.39280841070592
H           0.04900845733208    2.05232099309773    0.67371571432690
N           1.94159561074071   -0.08185742074133   -0.20991281621341
H           2.75396414838389   -0.51765657219139   -0.62867543792703
H           1.67741078471485   -0.64587913877972    0.58986102460477
H           2.24607276850667    0.81538836572968    0.14815145558136
