    26
        -50.45521604  Gyration_radius:  2.43524838157 Dipole_moment: 2.498
 S          -1.35531322903712    0.27051256838584   -1.24750932790952
O          -0.16842708067283   -0.41934736423221   -1.70454198838552
O          -2.57199050795085   -0.46127383590808   -1.36012974333815
O          -1.12094736403732    0.70954939185257    0.21109466571651
O          -1.47286929774928    1.62444992716044   -1.96489684508296
H          -0.53065724566622    1.96610317195013   -2.00012763099477
H          -0.76822620310221   -0.10185327683122    0.81891504149192
O          -0.22717798668304   -1.16134445871997    1.57423138052376
H          -0.78751924332386   -1.89796870035360    1.19113615207893
O           2.19912921570915    1.65940737788533    0.52160247799848
H           2.94680169390775    2.18486899137755    0.81017472696033
O           1.06825022674593    1.97018259201500   -1.95279015596075
H           1.46830979121044    2.00356017811140   -1.06186334911155
H           1.08034272090143    1.03567149495210   -2.20124804114244
O           1.84528754315179   -1.05778320669060   -0.01192124556215
H           1.22342630760427   -0.97443637239531   -0.75659010834207
H           2.18760481878616   -0.16288190384514    0.14165445078963
H           0.65510580407336   -1.25292807871370    1.12105095182009
O           0.34422151242598    1.56444679266151    2.43115181425346
H           0.26667388980301    0.63251589890905    2.66847638534981
H           1.54071011796975    1.67633945814773    1.25897222162626
H          -0.43179295679823    1.75465484579233    1.89183940239184
N          -1.70066839544385   -2.78436943969005    0.11577101994037
H          -1.11602669025302   -3.32512816939209   -0.51009247171502
H          -2.14400428702334   -2.05692646520804   -0.44505911000973
H          -2.43024316454810   -3.39602143720415    0.46069933661703
