    26
        -50.46328765  Gyration_radius:  2.42783711012 Dipole_moment: 7.586
 S          -0.28345426220630    0.14164835760090    2.10908640140106
O           0.77803685151510    0.83457874518502    1.35635062355853
O          -0.76698326794595    0.86985291979277    3.22804306728248
O          -1.35067216765882   -0.22644689963927    1.13873226589484
O           0.32443996179787   -1.21166005123052    2.59510568773505
H           0.67943248903293   -1.66803162503861    1.80139079847266
H          -1.48828200903814    0.81701814272973    0.10283677770620
O           1.39524987292471   -2.43878282112672    0.47709802818990
H           2.18388191257448   -2.88560491024598    0.78773860017784
O          -0.37841235641952   -0.28491996868909   -2.42758676305548
H          -0.48241633295020   -0.60074401791010   -3.32545279487957
O           0.37692207047587    3.14412657200313    0.25556823717539
H           0.57875427611792    2.38028070721949    0.85294954287218
H           1.21018504045726    3.37908052323401   -0.15737805636804
O           1.90525685585696   -0.21342384164423   -0.76460557971739
H           1.70249968644181   -1.64670054719288   -0.05273670345849
H           1.22892289194766   -0.13156694968721   -1.45309784359023
H           1.55540709967393    0.26526873854964    0.02329216245145
O          -1.08325859609292   -2.09543951816272   -0.71135709660117
H          -0.29630283746712   -2.56529019773383   -0.40396589373409
H          -1.31862954752918   -1.49914514056855    0.03380154835662
H          -0.66670683455641   -1.03895274475602   -1.82598543852498
N          -1.47564746659364    1.51871776786915   -0.73016368342225
H          -0.79846300185525    2.28119596383057   -0.46659603385237
H          -2.40499500178964    1.88957738418192   -0.89354062891302
H          -1.12476533675445    0.98536343141894   -1.54952720515908
