    26
        -50.47098751  Gyration_radius:  2.40466528529 Dipole_moment: 3.045
 S           0.77468303932352   -0.75310893515359   -0.54091942962822
O           1.39392626322727   -1.20287091907023    0.70423015707649
O          -0.12000754304579   -1.74714577298643   -1.11054863720760
O          -0.17747460998602    0.43992808002792   -0.08042675196850
O           1.72254014920301   -0.19427775226947   -1.47147597209975
O           0.05955446403829    1.86263475184399    2.32086641863600
H           0.98260398741290    1.75772146084871    1.99212436748205
H          -0.43955342343563    2.12550572441330    1.54251889911419
O          -2.14610679695467   -1.61740564929952    0.59049297320853
H          -2.74557025773490   -1.05942000726848    0.08851925618880
H          -1.41387734855551   -1.83598464756509   -0.02962183859461
O           2.36693701012074    1.25508991173531    1.07345928954722
H           2.49157850273675    1.55109016780233    0.16839894383561
H           2.19414291346662    0.30010177638974    0.99390911324212
O           0.45450507704899    0.98254415085574   -3.47594559115518
H           1.00761871750827    0.59898788871601   -2.76019113297668
H           0.81911077585910    0.64791491090713   -4.29682472609552
O          -1.71058962611915    0.15256843088266   -2.13519630951931
H          -1.13929539741280    0.60105553811388   -2.79131898372897
H          -1.36776880740710   -0.75597716456520   -2.09344123954346
H          -0.84442107237647    0.51816097226873   -0.81722165203634
N          -0.45013135046481   -0.73201660816331    2.46307031869583
H          -1.28501902441260   -1.00721981438055    1.89198949983909
H          -0.45045291051926   -1.17418312151929    3.37591356243993
H           0.37737660207213   -1.04048556360507    1.87202631114702
H          -0.35430933359309    0.32679217105668    2.52561317410807
