    26
        -50.45260141  Gyration_radius:  2.49723427783 Dipole_moment: 5.352
 S           1.59607096953314    0.74457326431652   -1.48147432206609
O           0.31663676892733    0.03139250559996   -1.71012195300234
O           2.13676833911735    1.32452215473769   -2.66177534126742
O           1.37604526887122    1.73165810869209   -0.39380451785292
O           2.59859961281500   -0.31689338952984   -0.92826271538043
H           2.19575537664751   -0.74030584419124   -0.13780876195995
H          -0.06729844130767    2.30669753774325   -0.69832866972541
O           1.62084874763799   -1.39144344877807    1.30948030673060
H           2.35874984843891   -1.50700142557309    1.91081729222596
O          -2.20469600813951    0.80698282057171    0.97364629080507
H          -3.03621126002265    0.70622232878310    1.43741386644174
O          -0.30568315635328   -3.23152378587682    0.70162484899194
H           0.05967587405797   -3.80494352225890    0.02581202491046
H           0.41781451632055   -2.64242984635884    0.98421526436259
O          -1.71225258343588   -1.25007688604617   -0.48980317088830
H          -0.96654704999069   -0.91825525957096   -1.02504173213111
H          -1.35663122574401   -2.02464614105093   -0.00854184109993
H          -2.06260620436729   -0.04772077571165    0.45416667517982
O           0.44366883827938    0.82201532604392    1.89891490523914
H           0.85745573080538    1.26733692911654    1.12494846341173
H          -0.51181193137516    0.82902846316881    1.73110885537019
H           1.12005343205858   -0.58137001849575    1.63353512936458
N          -1.03763699373608    2.08287275984326   -1.08045057823707
H          -1.66898467824754    1.81635900912199   -0.29568831466686
H          -0.74591343533866    1.18814697555117   -1.58872570023105
H          -1.42187034548265    2.79880218007150   -1.68585632450190
