    26
        -50.47098753  Gyration_radius:  2.40473704224 Dipole_moment: 3.056
 S          -0.63476190972163    0.59584718089577    0.83730437430971
O           0.39936219926838    0.07442988676265   -0.25838818351556
O          -1.79354907377754    1.03635837488446    0.07811040915953
O          -0.91076481517162   -0.58992437556857    1.64577047643451
O           0.03123156957107    1.63870134843660    1.57594781820148
O           1.95648100773438   -2.24354132872566   -0.03821118076026
H           1.99510019416095   -1.82153834022070    0.85149996562995
H           2.09251948964107   -1.51531770243297   -0.65078719243906
O          -1.92899646481965   -0.86433756853711   -1.76111946423733
H          -1.50723396482654   -0.41169403554762   -2.49588610455652
H          -2.04900041871724   -0.17715463550753   -1.06687390642608
O           0.87278914529617    3.53526014522246   -0.06875496733560
H           0.62554133667182    2.86998811793546    0.61073087263060
H           0.55885328883960    4.37805267425753    0.26280554953802
O           1.69291096287825   -0.77672722767283    2.20409933622349
H           0.71972639042180   -0.74592581449950    2.19480686459642
H           1.96099667250654    0.14523584122131    2.18395847565303
O          -0.24471113885772    1.94628124743906   -1.91250095826012
H          -1.07854190134105    1.91188003947064   -1.41418424824289
H           0.26126283764664    2.67287672987937   -1.49515041512783
H           0.32714589715819    0.73865096061184   -0.99820875818951
N          -0.67697875275391   -2.51866526905885   -0.06937421845611
H           0.38450117562765   -2.53783796588543   -0.15446222498281
H          -1.06766754119927   -3.43971117316512    0.09748870763053
H          -0.86808644026230   -1.85347264690191    0.73691119633023
H          -1.11812974597742   -2.04771446331230   -0.89553221380732
