    26
        -50.45260135  Gyration_radius:  2.49719755049 Dipole_moment: 5.354
 S          -1.45839238615664    0.45243841689760   -1.72183331513125
O          -1.45706006269151   -0.63199369670678   -0.71105683776466
O          -2.69880022232910    0.58574681987500   -2.40401674227468
O          -1.02671331934562    1.70230084493965   -1.04547013651498
O          -0.34363778148779    0.09294791418986   -2.75428621861131
H           0.49965396969151   -0.03756515367639   -2.26624290271032
H          -1.73926781336512    1.62791534102907    0.36537843644545
O           2.00210539196419   -0.12332254927526   -1.50156754406403
H           2.66473374356578    0.26145711058663   -2.07803763918628
O           0.18981898646607    0.45915250003896    2.49259298405415
H           0.54188243581713    0.33103372018474    3.37366269669905
O           2.15042840679820   -2.52223875943764   -0.20165555453537
H           1.88871121858656   -3.19674002070922   -0.83060148902477
H           2.19152876847003   -1.68386656728553   -0.69739872931861
O          -0.01198075728520   -1.78236411106741    1.24748816916003
H           0.17540008038478   -0.45179547933040    2.05607342324759
H          -0.55000256914773   -1.51559690309204    0.47805303681112
H           0.82422331128827   -2.12236467816638    0.86901557347114
O           1.29141895255941    1.66402620417878    0.21108979965806
H           1.03153825478655    1.31296963931642    1.07732246140587
H           1.82758821228173    0.55784307674687   -0.78214515838779
H           0.45286683775598    1.82362343953470   -0.27867540394402
N          -2.07370208950839    0.98313062902562    1.14673254780756
H          -1.33850695979616    0.91518632083080    1.88186845320465
H          -2.04207407988428    0.08731544891697    0.56364727871305
H          -2.99176053940588    1.21076049245699    1.51006281081767
