    26
        -50.44611890  Gyration_radius:  2.52825878255 Dipole_moment: 8.296
 S          -0.72864917199996   -2.16472662159868   -1.10590321825885
O          -1.13351931051291   -2.25519723859882    0.27136017077103
O          -1.52762420851927   -2.80346804507343   -2.08222219476149
O          -0.54023729124873   -0.64673116137269   -1.43656270743106
O           0.73675528385045   -2.65978564376995   -1.23948395760011
H           1.28339212109557   -2.24481360966198   -0.51842134274530
H          -1.28102172458708   -0.08314934381318   -0.97533271059662
O           2.16046976791721   -1.58418922486522    0.67624382745912
H           2.80762286090414   -2.23090086238286    0.96200546778030
O          -0.22413770771027    1.23562784681744    1.76386241205323
H          -0.00883049682445    2.00990586576826    2.28441051352226
O          -2.09027771825139    0.92835490483721   -0.25508767488744
H          -1.70929083003049    0.92522473770636    0.63847081180902
H          -1.73484584987358    1.74944029822159   -0.68068424898337
O           1.43086642185261    0.89228777144245   -0.30850791626079
H           0.42863734459468    1.19380963221672    1.02258506839275
H           2.02254421895778    0.20188089735253    0.02387432631555
H           0.81803939931060    0.41842703825977   -0.89770843353041
O           0.23918558098071   -1.41794601525251    2.37245972451110
H           1.46899066619863   -1.52735718459057    1.41501579671229
H          -0.01646339181518   -0.48036442360416    2.38137615538746
H          -0.39917957561647   -1.84351751024619    1.76433162291044
N          -0.68446343230304    2.94667446962058   -1.38591242480130
H           0.25982280729382    2.67135609470704   -1.13876278966031
H          -0.79719735464466    3.92756992115292   -1.16317521789300
H          -0.78058842880309    2.84158740628460   -2.38823106995261
