    26
        -50.45381473  Gyration_radius:  2.64797855022 Dipole_moment: 1.732
 S          -0.77990824882334    0.19421447864702   -0.01873329122877
O          -0.42399621984295    1.03616149813242   -1.12651311657448
O          -1.16591009731234    1.06700401885890    1.16930984502648
O          -2.04536171071934   -0.58723521866038   -0.33094622379588
O           0.26549595157922   -0.72953238081251    0.38718014045564
O           0.57484322400232   -2.78313570661071   -1.30487706828585
H           0.58335231456507   -3.58353334805686   -0.77666858377000
H           0.58251810580258   -2.03485513184179   -0.67634059641894
O          -0.90344267898255    0.28547519382697   -3.65163177126866
H          -0.61771430325139    0.64963510003201   -2.79094404954011
H          -1.55921440763282    0.89417526831518   -3.99664428957108
O           1.61518265629472    1.63397882348645    3.37683310653655
H           1.21575578030702    2.45899048757993    3.65750560195845
H           1.78870176731993    1.72265372698240    2.40413052277718
O          -1.69374307719148   -1.91512350872876   -2.39505633740009
H          -1.96262445258496   -1.18665881283039   -1.22165133985951
H          -1.43547364673333   -1.20975045436085   -3.03476632372382
H          -0.85867096392923   -2.38056077550595   -2.16035157107474
O          -0.19574910104416   -0.25057337986966    3.05678235450063
H          -0.88802305893051    0.55591658548330    2.03118721545971
H           0.22799537421426   -0.84401360463299    2.42301844512346
H           0.51019449519139    0.38851265142471    3.34364270516284
N           1.81532544457367    1.70988177619926    0.68794997281250
H           1.03539346401560    2.19505018805766    0.25852615913960
H           1.65872948283551    0.72585180290397    0.49341474319982
H           2.65634392629266    1.98747072200950    0.19564373035185
