    26
        -50.44900878  Gyration_radius:  2.43257394904 Dipole_moment: 8.517
 S          -1.76514683606871    1.20210610670001   -1.05992595528268
O          -0.64151959516236    0.84217492694861   -1.96053919313908
O          -3.03452131708010    0.80448895414611   -1.57739606035765
O          -1.50295213847162    0.32307673824672    0.26563191709308
O          -1.61252496309644    2.55335850470528   -0.57968782476834
H          -0.13753130079406    2.28843037060928   -0.09960853904445
H          -1.61104293665261   -0.62457443519893    0.09111456646291
O          -1.04398680562430   -2.35075980263315    0.26870959077741
H          -1.62538603716888   -2.96062175322676    0.72369999988249
O           0.81109019278353    2.21961008819793    0.20570845012324
H           1.22550577291171    3.02233178970547   -0.11670942263874
O          -0.12467397216676    0.98706875726836    2.55822446600647
H          -0.96522813074651    0.88896341414201    2.09379761628796
H           0.38560726655783    1.57083490812749    1.97853785518185
O           2.21923060718939   -0.02192877642821   -0.15286144723508
H           3.12032313409133    0.29894226590125   -0.09867480498385
H           1.63689235068532    0.77481505000701   -0.07381078683605
O           0.81119636356214   -1.41856414619511    1.82584536637298
H           1.46277074839940   -1.06127811812224    1.20407817478222
H           0.44430650833052   -0.61756990326041    2.26683575355585
H          -0.35444881693247   -2.05557337065069    0.93961877589727
N           0.47510698537638   -1.37815269825881   -1.75624656172258
H          -0.08614562371145   -0.39867196810931   -1.91049874864803
H           0.69508172899896   -1.82488137285398   -2.63799785113933
H           1.32279556617263   -1.08544276889952   -1.24608810426808
H          -0.10479874138402   -1.97818277086984   -1.15175723236053
