    26
        -50.44890334  Gyration_radius:  2.42444885873 Dipole_moment: 8.956
 S          -1.10472961535074    0.44562213669238   -1.86125906399458
O          -0.99125798601526    0.82354378554234   -0.44897490828827
O          -1.82974557714273    1.36690116441027   -2.66607807706272
O           0.44778139740309    0.43285961585128   -2.36420889151656
O          -1.48258202309027   -0.95749965569421   -1.97532604376297
H          -1.32099824917146   -1.61813077253326   -0.61375908408045
H           0.82640291251014    1.24460420554616   -1.94331971305988
O          -1.02076385993331   -2.13710451832658    0.20262387023812
H          -1.51495083857765   -2.95814086242374    0.18860512797988
O           2.06185656445634    0.26169028617936    1.24366479454771
H           2.72300271926748    0.21364510665417    1.93514784039360
O          -1.87995019249675    1.65249571436292    1.90464262351249
H          -2.83646455597296    1.61041601311130    1.93958516439375
H          -1.63385277800047    1.46729147752159    0.97657034083735
O           1.20720765820319    2.23475417334576   -0.64556387475835
H           1.73929757940430    1.77852976968305    0.02114226856530
H           0.28607722322392    2.03879434468971   -0.38977454152693
O          -0.18884794777584   -0.41976752545955    2.30117005887704
H          -0.77056806026857    0.36635284737428    2.34203508386753
H          -0.59780429930014   -0.99436000110796    1.63567243392667
H           1.17352658190159    0.08930564191010    1.69630297318159
N           1.36473505686774   -1.41079313158230   -0.70080709626386
H           1.01382000595751   -0.76669370609411   -1.46307068866953
H           1.79370731194277   -0.80208720298285    0.04677654138826
H           0.51088909828066   -1.87417541208582   -0.29225614413832
H           2.02421187360133   -2.08805352463519   -1.06954101457555
