    26
        -50.45207857  Gyration_radius:  2.41643641189 Dipole_moment: 10.173
 S           1.65615724440239   -0.97913403785321    0.81342769725991
O           1.42508360811453    0.13493394683713    1.71716847397150
O           2.75336504629198   -1.83625255961842    1.09226746187913
O           0.38445821920219   -1.71488835395224    0.58620158694767
O           1.95040547066886   -0.30705088563386   -0.61590179493967
H           1.39198686134226    0.48624855082919   -0.66474970665905
H          -1.06472303680659   -1.23456348042831    0.72602256120112
O          -2.02541996380003   -0.93692153626594    0.63150743900759
H          -2.55391619816886   -1.70611695810143    0.84944656382858
O           0.35998978906595    1.85277353706418   -1.10321828785273
H           0.86653240631457    2.46792078155550   -1.63502620785890
O          -1.07358267742108    0.92932041517141    2.54741970615576
H          -1.65652356824551    0.39530880043730    1.99500052948581
H          -0.20024539035992    0.50334762089212    2.48283413134448
O           0.40560809478069   -2.16935337425059   -1.93364356363493
H           1.30075930702087   -1.92814078230119   -2.18841547485613
H           0.43663883649066   -2.18222330101766   -0.93613385718671
O           0.59998922726616    2.64102600149990    1.30249724807393
H          -0.20643245659059    2.41691408624869    1.80463744524550
H           1.20095834392809    1.91145578590337    1.55148609501310
H           0.37715510868474    2.22886764389544   -0.15435487194121
N          -1.28483734675742   -0.18081599121645   -1.79880425813336
H          -0.73133154929946    0.68291347572972   -1.62437057158024
H          -0.59813277774030   -0.98913130464553   -1.99872491653017
H          -1.76456986018105   -0.43628047080107   -0.89307545192606
H          -1.94937274694755   -0.05015760971253   -2.55349800676286
