    26
        -50.44202999  Gyration_radius:  2.54481241631 Dipole_moment: 5.609
 S          -2.09820980790622   -1.39293470631971    0.32860264111801
O          -1.49449586624921   -1.46819874227831   -0.97537563978259
O          -2.84345490403391   -2.50987075462965    0.77401159888038
O          -0.95585310932059   -1.05232854687801    1.34862182850520
O          -2.97286595739009   -0.12167366882570    0.42648644492677
H          -2.43157396554117    0.66752666899207    0.13738657356213
H          -0.07102074548120   -1.30944007307738    0.94611939094220
O          -1.55517346491067    1.90980193248627   -0.36536913763395
H          -2.13906327901543    2.59049384205259   -0.70513526290051
O           1.39405781320953   -1.58880772923507    0.46606672723803
H           1.78010622886803   -2.29483116053974    0.98687632838298
O           1.80257697544317   -0.64209457147396   -2.12626938197006
H           1.60362870925266   -1.06663885675258   -1.27543240751700
H           1.69142418269814   -1.31985248670486   -2.79558331074761
O          -0.09837039924980    1.58740881566591    1.99955928730557
H          -0.47526418247942    0.71251144226696    2.15190185395082
H          -0.56456986855368    1.92699114200081    1.22259315421222
O          -0.59952344828713    0.61292704289237   -2.35562416737134
H          -1.10871915708020    1.49210762861197   -1.17124536464780
H           0.35412378662764    0.40336501654484   -2.34620638107927
H          -1.02018280218228   -0.21333058160338   -2.04349623019300
N           2.43309295660270    0.68860266188682    1.10426357454802
H           2.69969653962243    1.16687967519110    0.25306803974521
H           1.85595300248030   -0.70988062169035    0.75154764832165
H           3.19615267569015    0.76234146135398    1.76384241124568
H           1.61752808718045    1.16892518006363    1.49878976095813
