    26
        -50.44203002  Gyration_radius:  2.54471124013 Dipole_moment: 5.607
 S          -1.86442082362770   -1.45478160338045    0.92666016945120
O          -2.23445297615632   -0.10845300263472    0.57900145154694
O          -2.86898611891002   -2.44914219878357    0.86885964865693
O          -0.64758453573058   -1.84964947750510    0.01844170108488
O          -1.20786475811133   -1.47087431615276    2.32645092192690
H          -0.48028149567470   -0.78567527410822    2.35121329827872
H          -0.63920654199639   -1.25596795592874   -0.79303959788199
O           0.65472543102117    0.34331385570603    2.37715009770834
H           0.78287055412790    0.64070013300848    3.27982259597611
O          -0.42875231109041   -0.39392421911071   -2.08431487446680
H          -0.58252997277080   -0.93008399770186   -2.86388349661246
O           2.08269339448221   -1.32915663480527    0.65017622271398
H           1.29950862763202   -1.86031519488807    0.46257105892683
H           1.80175595099669   -0.70547060609312    1.33461521211704
O          -0.65381083080713    2.33007272226233   -1.52551887057792
H          -1.52917497934313    2.67901487186302   -1.70346904259554
H          -0.69758621756367    1.37872636240254   -1.71737707523643
O          -0.82108127817044    2.05580999824842    1.17513973341460
H          -1.51487963919862    1.38214901090175    1.02725091024391
H           0.16735868082833    1.09021897306258    1.89966582134497
H          -0.56426140474794    2.32366551961922    0.27193072816922
N           2.09155277481373    0.09530125921466   -1.79685540323460
H           2.20685461180599    1.08708027014916   -1.63102258615913
H           2.28520471994635   -0.40002160590300   -0.92007405407239
H           0.58773861620164   -0.21809796631098   -2.02938060863165
H           2.77461051205986   -0.19443891313714   -2.48401397206670
