    26
        -50.46544148  Gyration_radius:  2.54263034943 Dipole_moment: 6.080
 S           1.74947452828735    1.12756139723062   -0.82729113992539
O           1.68693838993040   -0.11786639897331   -0.07137027882563
O           2.58731484821810    2.12793170756265   -0.22878433589175
O           2.41334489885858    0.76279308639405   -2.22704953428134
O           0.40289037139586    1.59238979623622   -1.16072557085205
H          -0.79939435703137    0.62430195815449   -1.37385429693742
H           3.32383705861840    0.99298083811292   -2.07546826651864
O          -1.05521791346075   -3.19399788800756    0.78089297758562
H          -1.52073595364386   -3.95056977523749    0.42315686610936
O          -1.60605297481931    0.03923937772155   -1.45710507146027
H          -2.19016642224160    0.49490760101817   -2.06487751935022
O           0.33083351458038    0.47000167389756    2.11258992111151
H           0.96847633608545    0.15447435699328    1.43658383709782
H           0.28926951655253    1.44362710535517    1.96872715560990
O           0.39177172073885    2.94719804684372    1.14371059250642
H           0.15031431213393    2.65007650618063    0.25066921410041
H           1.34754712248200    3.07108002652807    1.07040509920696
O           0.27650732816528   -2.07307545391088   -1.18674601767734
H           0.91336496739089   -1.44329104869830   -0.78893386188936
H          -0.43431195842621   -2.88681878974618    0.06693265141661
H          -0.40830892909563   -1.51440684240015   -1.57599609215182
N          -1.79312537718275   -0.66118791362687    1.16353489278215
H          -2.64103180349054   -0.44993881718996    1.67708808628989
H          -0.92911835929992   -0.17695244049688    1.62334074371291
H          -1.60252157684551   -1.69405385594595    1.14508223646434
H          -1.85189929789217   -0.33640424400862    0.17548773177641
