    26
        -50.43883796  Gyration_radius:  2.61763189479 Dipole_moment: 7.873
 S          -0.29778797839612    2.90223013609545    0.25098070718302
O          -0.33375450854643    2.30317439396934   -1.05786926762654
O          -0.73613370957346    4.24170968213086    0.37257680547695
O          -1.11805016594497    1.96428662702107    1.20254681983509
O           1.12889991649879    2.78083817746256    0.84272780306864
H           1.35913997920723    1.81671160716186    0.89746313330303
H          -1.53226686729040    1.24214058473333    0.65392686039025
O           1.69863484971166    0.25706040153999    1.19186029523390
H           2.23632976708539    0.26204661062686    1.98555649158361
O          -0.21289627096357   -0.17082859725675   -2.05475807790936
H          -0.19658048194715    0.79876985126155   -1.96523272658444
O          -0.20079187761902   -2.83071896998552   -0.96245336991340
H          -0.41577509613620   -2.02175053886107   -1.45077016900700
H          -0.39114879847232   -3.56313954921484   -1.54995860033364
O          -2.16778623733372    0.08818169690894   -0.26189426265741
H          -1.44359439040799   -0.09047393825748   -0.91339965716591
H          -2.86443068620139    0.51953467319553   -0.76086238082147
O           2.14004365777413   -1.13240296342859   -1.15936771175362
H           2.17751197884173   -0.58409374102504   -0.35931675584017
H           1.73028307522749   -1.96554838100335   -0.89804469054554
H           0.71791576180891   -0.43804695435183   -1.88339390158247
N          -0.32085523594174   -1.34748221754742    1.61683546905094
H           0.88324839242889   -0.32309656467705    1.39089447465053
H          -1.18313838144127   -0.83531753728740    1.46995318413629
H          -0.27394289960161   -2.05733183582034    0.89054474616598
H          -0.38307379280488   -1.81645264341379    2.51145477169686
