    26
        -50.46176277  Gyration_radius:  2.48535386095 Dipole_moment: 8.084
 S          -1.28246907392937   -1.29696007072902    0.33472198022395
O          -0.94246608963584   -1.11896955522637   -1.09389086788527
O          -1.64552016449324   -2.63178515678986    0.67506400906374
O          -0.19520687843492   -0.73892059949867    1.15284234290289
O          -2.52230646719086   -0.36294321593125    0.58434023319685
H          -2.20757239755717    0.54047714727321    0.40500816209376
H           1.45890080490501   -1.08823915577695    0.93039497753187
O           2.27613250284858   -1.29269190698678    0.42697935241332
H           2.07019754775094   -2.16681482839711    0.04427487967757
O          -1.59719546565167    2.20690649720099    0.42722714694359
H          -2.33796692539053    2.76018530524759    0.68266472053395
O           0.72130140070639   -3.21709041319718   -0.68303688675348
H           0.07277874808351   -2.57707104577530   -1.01858489460507
H           0.22017992623116   -3.71399217012982   -0.02919066711571
O           0.52485615610394    2.71422518645596   -1.19865468183314
H          -0.24920130371945    2.56899190449922   -0.61938144308262
H           0.20908275175331    3.21384488679503   -1.95310585724662
O          -0.23027449856026    1.46772633357007    2.51002384028459
H           0.69577251064353    1.70621784055677    2.58606033502011
H          -1.08475846077235    2.02380596314710    1.26562064694493
H          -0.24103472293236    0.55016858620049    2.14009312451919
N           1.27968345539653    0.11193227623263   -1.53541979613596
H           0.31629574193933   -0.35406446907924   -1.41722511034017
H           1.87028310612406   -0.34438893028050   -0.76598743272670
H           1.65877116449851   -0.09468929566210   -2.45303632438197
H           1.16173665123617    1.13413885631567   -1.39780179933094
