    26
        -50.47062761  Gyration_radius:  2.43177004331 Dipole_moment: 4.343
 S           0.55104758855132    0.00413680473301   -0.90680424406633
O           1.71765671458162    0.98690281373862   -1.21472358414310
O           1.16165389916175   -1.28755165471978   -0.65353633031231
O          -0.08360805381980    0.51986010107406    0.32420129809551
O          -0.37845173676247    0.00675893965845   -2.01491653066861
O          -1.96300970939302   -1.90736325620090   -1.03669195037240
H          -1.35204598448573   -1.25785805819884   -1.43837132884600
H          -2.75263717111589   -1.89647674991925   -1.58146234693430
O           1.94234487578708    0.24815716360985    2.00537961604207
H           2.71984621737918    0.37627740896410    1.45838080637814
H           1.18302353702149    0.48432980591508    1.43134534508387
O          -1.69130997789707   -1.26648067886276    1.55841709660345
H          -1.30649259659570   -0.41718765872456    1.27635431832008
H          -1.98203763049498   -1.66429064017483    0.71318143143156
O          -1.00854360165548    2.96854791273577   -0.17826307157292
H          -0.75827888903277    2.04951802949700    0.04801664295817
H          -0.70179690706930    3.51807325931915    0.54488405562439
O           0.22149434602200    2.58155014487683   -2.54507134514441
H          -0.28991999587976    2.96896331434238   -1.80617600543745
H           1.29902068101840    1.71210541870469   -1.77064773633898
H          -0.25708490465763    1.77251364937374   -2.78142482049904
N           0.75568472676844   -2.14062991092418    1.74628895160527
H           0.95619266177829   -1.97210038107160    0.71049272981222
H           1.01133862802769   -3.07181516073226    2.05335854511146
H           1.29735119058957   -1.38796960130550    2.21652234543289
H          -0.29143791784960   -1.92797102572578    1.84126612183557
