    26
        -50.44688611  Gyration_radius:  2.41307769124 Dipole_moment: 4.091
 S           0.00209599139530    0.41428364378426   -1.84693027689497
O          -0.68963850472322    1.66889616245299   -1.83880565511651
O           0.08946521433919   -0.30463887684661   -3.07375392889995
O           1.44218646207525    0.61393375441730   -1.32486891007250
O          -0.66993535748213   -0.50924376133988   -0.79501852544405
H          -1.26949884891385   -0.00549396983605   -0.15413014894671
H           1.49573079439300    0.67708969207995   -0.31311133281506
O          -2.22474581465863    0.69522881371101    0.84679738564906
H          -2.96560906354322    1.02017839920418    0.33081891122377
O           1.65159087469247    0.59765285975608    1.20750964208104
H           2.58290233720879    0.65778287646394    1.43096642401712
O           1.34293306774698   -2.25644803862050   -1.65530740111966
H           0.82403582514917   -1.65660233101209   -2.21603709666259
H           2.23410416526008   -2.24560015123350   -2.01032846900764
O          -1.53596295046125   -2.07226914268345    1.44845901626406
H          -1.67285388721519   -2.26853718308443    0.51779573137552
H          -1.85020409023689   -1.16972070342729    1.58048752174658
O           1.17391320495190   -1.90779267232098    1.09748073746826
H           0.24519438512131   -2.06809336974839    1.35526742786122
H           1.21825968188011   -2.10439071940105    0.14234732195767
H           1.42848151385075   -0.39541337292837    1.26037684067834
N          -0.51733110456960    2.64273945686122    0.83943238651483
H          -1.62235026897557    1.49818891457163    1.00321367411241
H          -0.59056298608913    3.60400401004418    1.14420899500334
H           0.34528358429122    2.25220036215033    1.20181551923716
H          -0.46748422549955    2.62206534700848   -0.17868575019569
