    26
        -50.44415228  Gyration_radius:  2.49521634674 Dipole_moment: 4.732
 S           0.19930598273853   -2.23189735769789    0.09184277591846
O          -0.29065490669006   -1.75023197758764   -1.16511662373797
O           0.24895723511495   -3.62301254738465    0.33585747735828
O           1.61841866117679   -1.63963088461350    0.34706552673749
O          -0.64759031795108   -1.56504984345402    1.22938629949906
H          -1.04611255085404   -0.69050482576775    0.91962367099175
H           1.71305582247710   -0.73574595850639   -0.07539262123199
O           1.95157634290525    0.76949134331051   -0.51967311007261
H           2.87887355905752    1.00853917415900   -0.46982373452464
O          -1.68753889372844    0.70513477416219    0.66841339356697
H          -2.54288034744772    0.71949874995370    1.10093728816589
O           1.23246461529992   -0.55012715109117    2.99813565597097
H           0.49513239291096   -1.05585816492704    2.62528812620197
H           2.02779912537577   -1.00456486787226    2.70975522885663
O           0.33127545514800    0.33444673800587   -2.79555988590068
H           0.99223013686331    0.68227458654980   -2.18361569578409
H           0.11088345778914   -0.54101275143565   -2.43811461734986
O           0.73174726554048    1.70174952723463    1.55059679643699
H           0.95489254056136    1.02668000223507    2.22319048482469
H           1.49291838879509    1.23902276305672    0.24535817786891
H          -0.19734485812960    1.54223068514272    1.31922064072130
N          -2.16145716534335    1.17018668129073   -1.82123656120819
H          -1.86172545227206    0.88369242187985   -0.33886433077741
H          -2.43925844372682    2.11071770518711   -2.07113001451757
H          -1.26393179518436    0.96889780599328   -2.28228618206142
H          -2.84103624044001    0.52507339219887   -2.20385816594555
