    26
        -50.44688621  Gyration_radius:  2.41306688079 Dipole_moment: 4.099
 S          -0.76588214211674    0.83183392923974   -1.51789220160805
O           0.17063857149404    0.44577266585913   -2.53100899938797
O          -1.62838366375762    1.93592288567745   -1.77579112885080
O          -1.65787547613815   -0.37495416101130   -1.15069535621221
O           0.03140060891659    1.13671323004643   -0.22086610336671
H           0.97938779525239    0.78324233876854   -0.24895680312787
H          -1.20045638862116   -1.03579084290270   -0.53099147976887
O          -0.62520870044954   -1.96490374556910    0.54214612053580
H          -1.27527137283649   -2.63768447281293    0.75580816419751
O           2.45030584494788    0.29391796245653   -0.23111861201907
H           2.91215256905319    0.80298867398162   -0.90063422419180
O          -2.54999677874202    1.59937211099428    0.76062179554226
H          -2.21533812558534    1.84917778986843   -0.11636495711775
H          -3.45630050840254    1.31499988306539    0.62650813683089
O           1.37642707504111    1.23386793224567    2.31050589654829
H           1.95823878764917    0.78431588397543    1.68589555865259
H           0.98887439739745    1.97081318376377    1.83082575370025
O          -0.99520579630349   -0.13295748478289    2.28191481782176
H          -0.69737102365243   -1.27740828693790    1.29074678065101
H          -0.14625160182084    0.31699571166100    2.45935624265658
H          -1.54419078284222    0.52087654816554    1.80874648398953
N           1.58588251601126   -1.80175993335525   -1.48348902806859
H           1.05222603702896   -1.22068641415661   -2.12924618244375
H           2.25391748706003   -0.60822907242935   -0.65521637139643
H           0.93068988052038   -2.24798926888827   -0.85140287770043
H           2.06759080089224   -2.51844703693316   -2.00940142586744
