    26
        -50.45499951  Gyration_radius:  2.50023010677 Dipole_moment: 4.583
 S          -0.49769455284853   -0.57619327415347    0.79827155904658
O           0.63214167286745    0.34544609284550    0.92909470059254
O          -0.50669834422338   -1.51935654982311    2.01617171393457
O          -1.75851631626021    0.15688498323186    0.80192592119616
O          -0.36184705802783   -1.37955933516192   -0.41712733005644
O          -1.86171726401989    2.66870387146543    0.31866948668784
H          -1.76395253077518    1.73040487165243    0.64941228518889
H          -2.74507456289147    2.94811922589749    0.56595885406242
O          -2.19868428305583   -0.31808527594629   -1.84643022375958
H          -2.81240705655229   -0.22834721651068   -1.10749008208869
H          -1.44640919594254   -0.83382224825606   -1.44002754429640
O           1.17266522709836    1.55952401670242   -1.25848362502382
H           0.99508379025315    1.03201045819676   -0.42443052140439
H           1.59227445518128    2.37200059527409   -0.96582453054493
O          -1.19420117353505    1.96644076873642   -2.01911798084030
H          -0.18284935896101    1.80436612406421   -1.83134110404384
H          -1.63512900060569    0.99650095359412   -2.05499985515300
H          -1.53091608285092    2.37632738610309   -1.13639208629694
O           1.09247316640718   -3.18897998379027    0.94211841868975
H           0.68852014311164   -2.87964043295081    0.11722984884441
H           1.92840419302294   -2.66759053626470    1.03162739822834
H           0.10935111914457   -2.27114441962172    1.74631325877781
N           2.97694096078521   -1.28110112715715    1.13144707229469
H           2.21652541334242   -0.59972084413881    1.11784846482189
H           3.58837400796756   -1.07457543390258    0.35163435885082
H           3.50334265136438   -1.13861265008748    1.98394156229002
