    26
        -50.45666393  Gyration_radius:  2.37790209472 Dipole_moment: 9.512
 S          -1.48532354216334    0.86183613142644   -1.09872454471926
O          -1.29330375277296   -0.15101069226180   -2.12743678665990
O          -2.45147258078020    1.87251313602288   -1.36182381659301
O          -1.66607733873363    0.21170686738366    0.22241750026127
O          -0.04255244844068    1.54705847396516   -0.99543326665189
H          -0.14598761914782    2.12131492595797   -0.20743338583266
H          -1.17543892478467   -1.25218147161156   -0.13029598317482
O          -0.72951437055420   -2.12037293502860   -0.33787028450019
H          -0.98697394264722   -2.27239420029975   -1.25266072771951
O           1.38557980665946    0.33187937438002    1.98963916088506
H           1.92154444095168    0.42789890214670    2.77780796467579
O           1.18892776492575    0.01680795612415   -2.81432243541579
H           1.31945338475407    0.96642569363067   -2.87440566563133
H           0.20493302206222   -0.08267496053103   -2.68834577081757
O          -0.53114628640480    2.38612166873404    1.42094790047672
H          -1.28217391065208    1.79465558817367    1.26730220156645
H           0.17766490626637    1.83025936878426    1.77874581934938
O          -0.83322173889370   -0.99511579973016    2.46116850251642
H           0.58640350620553   -0.19828736105124    2.25016491306460
H          -0.87495274651319   -1.91063349592037    2.17313311967976
H          -1.32589825302020   -0.49776240344453    1.78035958732228
N           1.63711021698763   -0.97738564949313   -0.43419889082037
H           1.56241513187355   -0.47416476627181   -1.38240905299913
H           1.65589763085006   -0.30925554769385    0.35550197888003
H           0.73179975625424   -1.54597220336933   -0.35943651116440
H           2.45230786771627   -1.58126661001508   -0.41239153598321
