    26
        -50.45598217  Gyration_radius:  2.55120341137 Dipole_moment: 6.505
 S          -1.19823146149616   -1.87486439697135    0.44130175835788
O          -1.90696397910568   -1.59534310834754   -0.79343383335786
O          -1.70545106565961   -2.90021528120344    1.28355478451382
O           0.27485935094302   -2.31652356950426   -0.02389447652362
O          -0.95315477540422   -0.59545298057633    1.16470000960183
H           0.28043538617268    0.06063329015854    1.92097618277045
H           0.39625618680723   -1.80517851407606   -0.83296581168413
O           1.07099934148233    0.54506625007648    2.28417416525920
H           1.00295976193564    0.47568485418025    3.23753945676129
O           1.37537277446784   -0.42130962128241   -1.76602841951215
H           1.88933810442397   -0.71830009146083   -2.51739772071277
O          -3.00103161515947    0.54438194215684   -1.88719002276493
H          -3.89583869682136    0.62346614017047   -1.55411394767461
H          -2.68306162743229   -0.33902434448797   -1.58989267172635
O           0.76655366379107    2.83897055131295    0.81704678303878
H           0.88991987294295    2.09618879315538    1.44088035696333
H           1.63733568915472    3.20279102449287    0.65212067748873
O           2.64224576147707   -0.84180655605643    0.51221476105834
H           2.24905300048601   -0.26772893531798    1.19383875482326
H           2.19914348202083   -1.69300236551064    0.61716537044835
H           1.96610935401744   -0.47943043413381   -0.97130340417030
N          -0.65913658397411    1.12233675168811   -0.74289093986399
H          -0.84317063503816    0.43399753532652    0.05812660062415
H          -1.55779342676428    1.22777912673596   -1.25406333966546
H          -0.27857700724552    1.99277421276227   -0.33504241284092
H           0.04182914397564    0.68410970671689   -1.35542268120741
