    26
        -50.47194199  Gyration_radius:  2.49764486455 Dipole_moment: 3.372
 S          -0.94173135016074   -1.90910849758071    0.59989698812826
O          -0.92979790357963   -0.72701117838525    1.45512227017463
O          -1.37627455293921   -1.61049585830841   -0.75035079665977
O           0.31369795852884   -2.63172959140385    0.66302747101285
O          -2.04264520602539   -2.87655542903256    1.20154749514337
H          -1.63724622425537   -3.15965555737245    2.01427079257723
H           1.56203622822082   -1.79615118376435    0.13694902284083
O           1.07743751869126    2.91394845643814    0.59238904582844
H           1.96701957183442    3.22865472181985    0.42734096252053
O           2.28596376513979   -1.20795039615435   -0.20816714044762
H           3.05095069025830   -1.77390278771728   -0.32410830789030
O          -2.54281725830481    0.66517371059188   -0.06005811126036
H          -2.07910551255807    0.37861017868709    0.75181339535523
H          -2.50728092280343   -0.14831314908807   -0.59133139329723
O           0.52133908879979   -0.31050640938815   -2.07989919145427
H           1.29946644632322   -0.55100480632681   -1.54472586882345
H          -0.19438229679048   -0.89165589941449   -1.74588020258964
O           1.39595171263501    0.57769647269151    1.72044821259327
H           1.17849107557715    2.07713351594245    1.12522432340744
H           0.52717310027165    0.13344972713291    1.76749609773268
H           1.91460729606715    0.03519260592714    1.10641495170977
N          -0.56841528535326    1.94073485728838   -1.26411348376298
H          -0.06269292772406    1.09448509466613   -1.67336195642184
H          -0.84661473732768    2.58718946112735   -1.99376178537122
H          -1.42520850500261    1.55074444246706   -0.76252504891336
H           0.06007821055183    2.41102750916857   -0.56365775209350
