    26
        -50.44151837  Gyration_radius:  2.60952927766 Dipole_moment: 5.289
 S           1.99145673090920   -1.83981130809611    0.88641099606076
O           1.94840554078434   -1.24371767824221   -0.42490959831146
O           3.17243245518874   -2.52274340347164    1.26091158954108
O           1.66091613613765   -0.72047100682493    1.92560798372357
O           0.77958003023790   -2.79527312117158    1.04087758009093
H          -0.01781853043074   -2.29202358226258    0.72727782510010
H           1.53177590290862    0.16715153386572    1.48732720249065
O          -1.32412724936859   -1.46161892759275    0.29612021709702
H          -2.10081684051534   -1.94519613085583    0.58283655080429
O           1.34509868535592    1.63378939364068    0.86390803376642
H           2.18797041813181    2.08553950222142    0.93401246128494
O          -1.19678149882632   -0.42484144967968   -2.20146320818769
H          -1.23874008992148   -0.86907178548654   -1.32864611847659
H          -0.93987143267372   -1.09481212065214   -2.83686851522228
O          -1.84080770016790    2.15945677569108   -1.23542354759521
H          -1.88213532135416    1.33486265323803   -1.73686410946472
H          -0.99512489142336    2.55787220148906   -1.45598259928501
O           1.11919664512509    0.96351081379482   -1.64754563907350
H           1.20297536240057    1.46005947742086   -0.11055682945386
H           1.62467755927241    0.16461482430384   -1.41160790080781
H           0.25361271794348    0.60743117387135   -1.91952570421058
N          -1.47734160225152    0.88659703526103    1.32160443626935
H          -1.36714982598539   -0.52891593046238    0.76525166790259
H          -1.77492302185019    1.46401943584234    0.53187216817709
H          -2.10915117718642    1.04796088663757    2.09456214701661
H          -0.55330898247044    1.20563074752970    1.59081290076129
