    26
        -50.45719737  Gyration_radius:  2.4929306241 Dipole_moment: 3.861
 S          -0.91443449474570   -1.98018119880212   -0.09739968164490
O          -1.46112467118197   -1.69010442265150   -1.42148590492206
O           0.30416058081908   -1.24389234711894    0.13403852944517
O          -1.90035749420561   -1.84306296012950    0.95664319128603
O          -0.50758037577790   -3.52098171302027   -0.11260540562901
H          -1.34952128683710   -3.96546715937995   -0.08617779797688
H          -1.75965924277271   -0.28660998082415    1.24774716744243
O          -1.67075472343808    0.68179457353948    1.44102158727455
H          -2.09691151561104    0.81719065489081    2.28972088964882
O           2.15142988672889    0.97398595987342   -1.06862017689875
H           2.62906652922774    1.78695133835970   -1.23946234309774
O           2.11759607917035   -0.93861182965579    2.05394377162521
H           2.94378541923246   -1.17767412534691    1.63060425955050
H           1.41904325106237   -1.18692574410131    1.41307974137616
O          -1.19374235245022    2.38786237560908   -0.58481898588006
H          -0.40203645761930    2.73427557327657   -0.16038466996918
H          -1.60285871257975    1.82037078096177    0.09661857954324
O           1.04105877858207    1.43164904577493    1.30289296560681
H           1.75984130985584    1.06809755863803   -0.16169881561903
H           0.12502864315182    1.10689221464193    1.34012189085374
H           1.54142550777955    0.73925930433705    1.77663401497284
N          -0.23227235507761    0.45806946061606   -2.17562414992478
H          -0.71153986346260   -0.45868400418494   -1.89474191253792
H           0.75759105266230    0.45754921703964   -1.82852738127691
H          -0.27244509912269    0.58206100158545   -3.18159245722995
H          -0.71478839337825    1.24618640603033   -1.66992692601569
