    26
        -50.46160075  Gyration_radius:  2.57715440048 Dipole_moment: 3.179
 S           1.92483115912799   -1.10550924137707    0.71871455438620
O           2.89499054198563   -0.28366117347680    1.38633397614927
O           0.60850029453753   -1.08328051495663    1.35992663538015
O           1.80693353912064   -0.82119582157087   -0.71004951631938
O           2.42390291226785   -2.61061135133786    0.83555094563015
H           3.36169994662395   -2.53889008051254    0.98677059733008
H           0.75810635170734    0.57513057986514    1.82157824369873
O          -2.13510851767836   -0.06766378890943   -0.82830111602515
H          -1.73649008975018   -0.95964673926677   -0.95247047821440
O           0.83663419597544    1.54865785955668    1.80594125106007
H           1.77314446447745    1.69810034589663    1.96544028339897
O          -0.55088609984814   -2.22045769726272   -0.79393767069538
H           0.24092743769898   -2.03191233900223   -1.31102383877339
H          -0.26350634966807   -2.05176917493099    0.11861666313343
O          -1.62349910142273    2.01911696562586   -2.74476174703473
H          -2.09215249246595    1.31529147325590   -2.27515697991721
H          -2.16962773943253    2.25943934904393   -3.49380774805965
O          -1.88334040420326    0.03621893427389    1.84857352634178
H          -1.10528965717845   -0.54103596504415    1.81676607545092
H          -1.57970281546607    0.85646217613100    2.24499653596481
H          -2.34354401454743   -0.02598106558473    0.12680149117106
N           0.18231232879537    1.23334604290224   -0.79402494760955
H           0.36944447897989    1.65756270778720    0.13747265615711
H           0.17509440019886    1.91041909160682   -1.55541806397438
H           0.90017254329129    0.47155795679576   -0.92646096402353
H          -0.77354732312939    0.76031146055285   -0.78807035461469
