    26
        -50.47217145  Gyration_radius:  2.47512620902 Dipole_moment: 1.728
 S          -1.16259426211256    0.21145479583639   -0.29124286080886
O          -0.23290893699669    0.57549398861565   -1.36494952402240
O          -0.77835959864057   -1.04762639769825    0.31909250104061
O          -1.27747861308057    1.28985873926311    0.68055838987127
O          -2.55783703447992   -0.01545030030093   -0.94639147372881
H          -2.87639403168551    0.89554766903687   -1.12122387179282
H           0.71238223167259   -1.91525687110068    0.07593241773603
O           1.63015528519886   -2.10803660727942   -0.20196575391406
H           1.54723730476927   -2.19387577806290   -1.16959170311579
O           0.97453148663909    1.24022013790900    2.14168521020984
H           0.10714136046788    1.42953225170136    1.73188507325690
O          -2.98868628656023    2.57216113305537   -0.82300008739690
H          -2.28238903179563    2.37557780035302   -0.17393664053100
H          -3.74674160258424    2.87660515137188   -0.31853331234359
O           0.68027153063181   -1.57730716137353   -2.68123974144513
H           0.31020412650622   -0.75422222236087   -2.30268828207053
H          -0.06042158000445   -2.04737821122034   -3.06633061656132
O           0.32819299228087   -1.29296097437985    2.76452549397659
H           0.94287344777694   -2.01149925432520    2.59978111474232
H          -0.25033730144462   -1.25224699062438    1.98015494775357
H           0.83039485847330    0.39847726385247    2.62199799302701
N           2.06943201273429    0.48419730718061   -0.09589560844464
H           2.12835511937265   -0.57811173620802   -0.07643002783217
H           2.92290869424572    0.91438021235518   -0.43428516504506
H           1.25055697515850    0.68669768689247   -0.72396389634838
H           1.77951084349946    0.84376836753341    0.87605542382460
