    26
        -50.44625370  Gyration_radius:  2.48800779145 Dipole_moment: 5.297
 S          -0.11169307109787   -2.35769921474822   -0.66649378980353
O           0.36646554407674   -2.13321877315399    0.67844543013524
O          -0.68420574666859   -3.62148345346952   -0.94246727469772
O          -1.12373636323018   -1.20473858093284   -0.97700865797990
O           1.01345311714971   -2.07208414915248   -1.67829954000888
H           1.23778688322063   -1.09118194418074   -1.65253353102813
H          -1.33868631349994   -0.79343768419774   -0.08363796375762
O           0.16756341222825    1.68323976637471    1.79081179519006
H           0.32493969283804    2.15735262445278    2.60755241437195
O           1.54209067302444    0.44098504603628   -1.70637752321424
H           1.70103172295397    0.67456089451220   -2.62302707302486
O          -1.51832417968403   -0.36402002512789    1.41119243187293
H          -0.99481486307960    0.45044614127484    1.59158395840673
H          -0.93528317752475   -1.09857099723429    1.65592125110244
O          -2.91152427073818    1.00054771480037   -0.82919284187023
H          -2.81756352628301    0.21433522518727   -1.37475448349742
H          -2.97625117786242    0.69354434668574    0.08104780724547
O          -0.36337642332989    2.02039522420227   -0.90187113052835
H          -1.29491202963666    1.74132283609092   -0.98860792127406
H          -0.20525660131143    2.11708394823070    0.04975010221325
H           0.78078243112680    1.02160469979851   -1.40730538740204
N           2.13400358193477    0.05342870424457    1.20125334112506
H           1.62779143732043   -0.82905110480235    1.11846062717659
H           2.44085942582584    0.29738898674247    0.26575668076941
H           0.98303095634266    1.11110540203645    1.61178368788784
H           2.95582885590677   -0.11185562367115    1.76801757058890
