    26
        -50.44620145  Gyration_radius:  2.53614982249 Dipole_moment: 5.821
 S          -1.74430539117438    0.94255280222276    1.52750359066447
O          -0.86460074099697    1.94951419027397    0.98250908769440
O          -2.39055573836692    1.24495974283502    2.74822952467237
O          -2.79895824641823    0.54613895986004    0.47763010482946
O          -0.90614786424223   -0.37913725411881    1.64209099295635
H           0.04503967880544   -0.07158876095221    1.81387665734456
H          -2.36954365056575    0.20408517520263   -0.36649501800769
O           2.47368476446200    0.36149970844530   -0.54005621872244
H           3.26848228304294    0.75194935573464   -0.90446821598531
O          -1.79359940922165   -0.52213397069737   -1.64629135051682
H          -2.54482445551322   -0.87779703728152   -2.12560883933920
O           1.35765298063451    0.73679817885038    1.88976816399175
H           1.87412252345239    0.57252792602665    1.07157415336190
H           0.87012686331396    1.55809040616973    1.72682952241510
O           1.91056635983762   -2.27342085016279   -0.13610264733459
H           2.21808256984586   -2.41184168742701    0.76140409036188
H           2.15286386090069   -1.35838589673284   -0.37024724244152
O          -0.77907097130606   -2.43676429904223   -0.23930445782810
H           0.19701561565709   -2.49542995358605   -0.31590533738634
H          -0.94208928341210   -2.01270141272432    0.61377875668283
H          -1.36063407680314   -1.30866543346610   -1.19119784176406
N           0.36474674219549    1.51363774220225   -1.55382933035561
H          -0.08755845343393    1.85233394799163   -0.70353563973055
H           0.42967262379236    2.28986904792980   -2.19991634181069
H           1.68383678177769    0.79851256637542   -1.00741435222803
H          -0.26400534627029    0.82539679605354   -1.95482181152027
