    26
        -50.43883850  Gyration_radius:  2.61706186871 Dipole_moment: 7.875
 S          -0.89805369703829    2.26326744610302    1.62340423659120
O          -0.65865426103172    0.99391086737214    2.25952714653245
O          -1.60858470917861    3.24192346323834    2.35729417060065
O           0.44404570900430    2.86794304143515    1.14071084219419
O          -1.61825245195697    1.96122319482893    0.26397338391780
H          -1.81456253457357    0.98455264041723    0.22090044183121
H           0.85582259787823    2.23117351665789    0.49991766674374
O           0.06786010819664   -1.45379992192269    1.47758378870760
H          -0.11982628143441   -0.66671575169890    2.01943780714929
O           1.46481367657870    1.32035303032481   -0.69713931668693
H           1.89629284447235    1.93871359147819   -1.28918951557665
O           0.47801303036144   -2.76366467650031   -1.04887007861555
H           0.16806422360126   -2.51078119122386   -0.16622700995262
H           0.49441732010376   -3.72140784270567   -1.06887786819428
O          -2.09696096561810   -0.59374254857211    0.18196034548938
H          -1.28012424326648   -0.96662199425149    0.59942293103155
H          -2.80142538940165   -0.73845352603618    0.81685356296497
O           2.44447426650370   -1.08263814147747    0.26260106825041
H           1.00685995909608   -1.33624392061571    1.21018946554788
H           2.18269626247521   -1.63805711899782   -0.48117138013290
H           2.27802855094046   -0.16590978775389   -0.00954503438716
N          -0.23115268917981   -0.07603084057443   -2.11379166349955
H          -0.29850894159340    0.11173565990901   -3.10594635345921
H           0.03723908350939   -1.04932694630335   -1.99389143326929
H           0.76350139285278    0.82430682529163   -1.24771064637948
H          -1.15602284130123    0.02429092157667   -1.71141655740291
