    26
        -50.45391071  Gyration_radius:  2.52595059433 Dipole_moment: 5.278
 S          -1.42479208538765   -1.28636044872819    1.52885402996960
O          -0.62691109721110   -2.47946434901486    1.35357164676200
O          -0.64755195694795   -0.14551855507033    1.97860684486464
O          -2.19548042308997   -0.98080445212228    0.32136457590611
O          -2.48090592239840   -1.57946220858562    2.68009351645575
H          -2.86496774580524   -2.42586350786759    2.46577905116337
H          -1.13636328370185   -1.47209934226789   -0.80173672238953
O          -0.33903691205505   -1.78878653534456   -1.30155016655830
H          -0.31208489124892   -2.73147008226050   -1.11786136251277
O           2.29757109408472    1.32506349742567   -1.25391110723391
H           3.00272630107318    1.37028356834775   -1.89961738273526
O          -1.40498800204445    1.55055097237375   -0.29023369595332
H          -1.83734510243188    0.72292506340057   -0.01968595376839
H          -0.75741701138486    1.74812286871935    0.40568058812402
O           0.98082886545406    2.44540348972047    0.93503600069997
H           1.51940050443206    2.31600685834439    0.14167752206895
H           0.76300822803242    3.37731300953362    0.97681224241766
O           0.03194643324609    0.83100651403049   -2.38556307891875
H          -0.13394157456090   -0.11848644526463   -2.37361045665386
H          -0.58616933516084    1.20231240466603   -1.70433154331828
H           1.44343110133015    1.19016827463668   -1.77160953274891
N           1.37190606379883   -0.60986654821594    0.42552165058995
H           0.79521068015726   -1.14154789140018   -0.27977145330232
H           1.87146166536148    0.16672486122689   -0.05399506685889
H           0.66115935737426   -0.24730609956871    1.13717516700668
H           2.00930502907120   -1.23884493671955    0.90330470693254
