    26
        -50.46108202  Gyration_radius:  2.58384852979 Dipole_moment: 4.618
 S          -1.08782631284588   -2.07719913648028   -0.23957228149534
O          -0.75403703620217   -1.53386873233198   -1.53922355902478
O          -0.06171404467868   -2.92476703791122    0.32035560758801
O          -1.52244751447910   -1.03473501621389    0.69342961377976
O          -2.37666195214306   -2.98270698829941   -0.44551276294208
H          -2.02630455088600   -3.64092088288248   -1.03513838767786
H          -0.47711183790090   -0.39090747407147    1.74904605012039
O           0.16816589478998    0.10321859797517    2.31738425531305
H          -0.05147444182039   -0.11940809942616    3.22271476661870
O           1.29113131653333    0.07404692728594   -1.34627467783029
H           0.54449207078950   -0.51603523528941   -1.60518016820369
O          -2.46503402799940    1.21530836908838   -0.25879329190440
H          -3.30944876916055    1.36133155329653    0.16931286738684
H          -2.19014846361575    0.29878475308764   -0.01783518963003
O           2.10890125685200    2.81909675365798   -1.40508359080766
H           2.03761103128537    1.88391549214779   -1.64587632919470
H           2.80212739992262    3.18915019863468   -1.95219244196561
O           2.02542070683771   -1.33739844235548    0.74455906723873
H           1.77393745322939   -0.45098782894738   -0.65887947982792
H           1.65233593092386   -0.82267181800614    1.47348968292904
H           1.38146532197848   -2.06038623023996    0.59379050078890
N           0.09942013544874    1.82230041516738    0.19212508686974
H           0.55293685599976    1.09546794876099   -0.46787589404014
H          -0.92132232180066    1.83520142182656   -0.01803889813717
H           0.24085505838208    1.48479155715144    1.15446682920299
H           0.56473080055541    2.70937891437973    0.00480262483221
