    26
        -50.44620165  Gyration_radius:  2.53555306371 Dipole_moment: 5.812
 S          -1.44876991806822   -1.76950964921786   -1.01282102959898
O          -1.91896876289958   -1.32139773909200    0.27673036539820
O          -1.83845771654739   -3.06458104862224   -1.42525026063428
O          -1.84397018882756   -0.74910756375668   -2.09659336353468
O           0.11361416822612   -1.62396055197101   -1.00245017472642
H           0.38378223128681   -1.77303570193820   -0.03609295133048
H          -1.47276336660634    0.16504458471677   -1.89551470434139
O           0.90588964240478    0.65211173858723    2.30254399809918
H           0.93521670045754    1.00551311485208    3.19207294652861
O          -0.77559595418677    1.57715193669648   -1.76437980056902
H          -0.95192431990672    2.05086370891924   -2.57990693161253
O           2.87697976974101    0.60287963916177    0.42168054807224
H           3.29520634338653   -0.24351167278368    0.58920604299659
H           2.20242602261699    0.71712830662482    1.11654019893607
O           0.40847262888617   -1.87795157706050    1.50339523346424
H          -0.56016130322915   -1.87559394481202    1.52660479158859
H           0.68106007743195   -1.00998722317528    1.87175918994590
O           1.58809580512060    0.54966091763775   -1.94618774112843
H           2.13612112686436    0.70047565188143   -1.14687545409521
H           1.28871638599267   -0.36687575004479   -1.87940742520719
H           0.18353658564987    1.27763542089914   -1.82250263499812
N          -1.32923674612466    1.33160562116613    1.14210473938969
H           0.05007597088881    0.99258738664436    1.87291411780510
H          -2.05101281970063    1.85583365321001    1.62002483998086
H          -1.14979322033758    1.78676307072238    0.25301580034187
H          -1.70853913246737    0.41025765054749    0.91938967921035
