    26
        -50.45611986  Gyration_radius:  2.46642725734 Dipole_moment: 2.363
 S           0.82306310768894   -0.61933882828201   -0.85504648445185
O           0.68706141121207   -1.59460405832480    0.21378685586510
O           1.85890022898897    0.36456157313670   -0.59242941778933
O           1.16907352808711   -1.39887730512713   -2.14872740568369
O          -0.46559439067535    0.05683618967594   -1.10018539621554
O           2.05317091553084    0.08814005565839    2.01696736099029
H           2.11180073207331    0.32791516888508    1.06705930770110
H           2.01957854336188   -0.87292175267459    2.00751236654718
O          -3.07464186117612   -0.15744296761138    0.18178124148085
H          -2.66981300569571   -0.77237801179092    0.82292090179941
H          -2.63467494490379   -0.34879180696718   -0.65553773716094
O          -1.38382774221774   -1.60742668015279    1.75166421947306
H          -0.61062960397013   -1.63704387593096    1.12315630826472
H          -1.45985279099651   -2.48954885562077    2.11799724289379
O          -0.39531226444258    0.76992290313848    2.63868823873974
H          -0.80572225918932   -0.11353518002421    2.58209255825930
H           0.58084326036541    0.61750308633492    2.50054931952939
O          -1.34595487997863    1.68803506885436    0.53923437347465
H          -2.23111787332381    1.18954067175125    0.51072928691632
H          -0.90230582032431    1.39775545350119    1.48919646798409
H          -0.83697343827121    1.12694537960670   -0.18875273757426
N           1.51974713055097    0.89828829405660   -3.32638858151612
H           1.32305067003111   -0.65749403615602   -2.79969804068725
H           2.19064295600889    1.22539697128516   -4.00952223012023
H           0.63742743175682    1.36468921863566   -3.49128540347924
H           1.84206095955954    1.15387332404893   -2.39576260520459
