    26
        -50.44406965  Gyration_radius:  2.49993391874 Dipole_moment: 6.124
 S          -1.64335823761484    0.82540498781568   -1.72008677589037
O          -0.51924175407566    0.02546504513408   -2.11720346725594
O          -2.77700739442125    0.85512982806363   -2.56626116494259
O          -2.05412367475843    0.39996554637233   -0.26984148034566
O          -1.15259997193767    2.27634049899029   -1.45932003048454
H          -0.29872585102862    2.18523575834228   -0.97380114544961
H          -1.75447477685534   -0.54230863546929   -0.03931707841350
O          -1.33131158457482   -1.88363402919385    0.60417631008054
H          -2.08922570642915   -2.21658954435859    1.08881786279380
O           2.26080272844682   -0.26782602545062    0.47240377679874
H           3.20880499848984   -0.40200694764619    0.48646658942440
O          -0.83860140604329    1.67621714700136    1.92269104117994
H          -0.14232125348617    2.11782372999019    1.42211685336498
H          -1.50386593499173    1.41507648316479    1.27153269288558
O           1.10809963670466    2.06274679393413   -0.11769757388574
H           1.50558640525745    1.17671419727360    0.06819802353647
H           1.77150923448037    2.56520574866979   -0.59370596164472
O           0.25549860483581   -0.76184511103735    2.31543791751394
H           1.07862004259108   -0.62030180389157    1.82017950304615
H          -0.15890720423497    0.12499954751122    2.38015012963372
H          -0.69223106102219   -1.52704471661163    1.29835203472973
N           1.15855920707589   -2.00268995057330   -1.11753551073506
H           1.64199389831511   -2.59453473023449   -1.78086807923785
H           0.58730262178068   -1.34006828951075   -1.64375959780945
H           0.50827515379424   -2.57782513534658   -0.59462265144147
H           1.87094326970148   -0.96965043294286   -0.15650221745240
