    26
        -50.45480243  Gyration_radius:  2.46553154469 Dipole_moment: 8.359
 S          -1.58759498652314    1.59120832262709   -0.27926025037787
O          -1.83233521448106    0.79883165808420   -1.48573385140386
O          -2.49168520491919    2.66362533229066   -0.05485499114902
O          -1.39802188882902    0.68488152899738    0.87265556173640
O          -0.12364014895471    2.21583110869366   -0.51000486887384
H           0.48907232391378    1.77516169132533    0.10137377076282
H          -1.29728704295360   -0.66427236158998    0.20142449240196
O          -1.14873651688709   -1.52192851658212   -0.31813440140902
H          -1.73997096662446   -1.40518823327935   -1.06963095062573
O           1.84278270233891    0.90382765255496    0.86813003492932
H           2.50411322515611    1.49465707782274    1.22897419145071
O           0.03969174602248   -2.66447469590482    1.88980844706210
H          -0.55038296285844   -3.16664303996176    2.45398984589590
H          -0.46870248659208   -2.42928070251729    1.09716831482669
O           0.25761764964813    0.92616669740588   -2.94832811862988
H           0.55236472582231    1.82657810567962   -2.78688470134116
H          -0.64082484239058    0.88816121024415   -2.50468293184552
O           0.36379542839045   -0.06254551516325    2.71879872237661
H           1.33254380759551    0.52423861289855    1.65787456862288
H          -0.43543212950245    0.28209487926397    2.27478464098183
H           0.34387918684975   -1.02678508317194    2.56705549914430
N           1.22557437440916   -0.74424481303385   -1.19694871319932
H           0.94095982208592   -0.07143054753912   -1.99171504265218
H           1.86832316087578   -1.46085122794507   -1.51593312037993
H           1.63800164283686   -0.18627439598796   -0.42635478551857
H           0.31589458555578   -1.17134473522062   -0.84357135278527
