    26
        -50.44477123  Gyration_radius:  2.61814319559 Dipole_moment: 8.919
 S          -2.64511849435313    0.68871882495895   -1.21125372505398
O          -2.35940261596730    1.00775351257673    0.16336547806538
O          -4.00226389659029    0.65462333749861   -1.61206292188416
O          -1.84556259438549    1.61935421592335   -2.13895128208691
O          -1.97109522207626   -0.70910764853018   -1.49701339280425
H          -1.65915109039013   -1.11212909760167   -0.64667421238932
H          -0.90102179139099    1.59360718915310   -1.79344481627434
O          -0.96190652665865   -1.86152033019107    0.64022706307318
H          -1.54751551555883   -2.52936489271890    0.99971301447304
O           1.31589990544303    1.42882546197654    1.44136908036981
H           1.77796895031311    2.17547305795874    1.82327070944918
O           0.92986802039704   -1.40414872168143   -1.29572901120164
H           0.37392744219308   -1.68722136291216   -0.54967811758040
H           0.41832814717381   -1.59665710772560   -2.08542117421405
O           0.51007458098335    1.31989418867785   -1.18397714027226
H           0.73134466067532    0.37386271674970   -1.27740079774084
H           0.61519302618224    1.51988757740983   -0.23685789332615
O          -0.96179620569062    0.13360879844071    2.25156404999440
H          -0.91802027342519   -1.12180620488768    1.33259514598525
H          -0.13173789335893    0.62251838186014    2.11386797157366
H          -1.61298466827464    0.59413090971219    1.69062011203137
N           3.06620282514651   -0.41545892102487    0.59151161925113
H           3.30711006707314   -1.14153443165143    1.25453343381407
H           2.00113622318227    0.74940219350041    1.19083978126846
H           3.92626866865732   -0.05311405055606    0.19901825328114
H           2.54425429069748   -0.84959758690680   -0.16403123781282
