    26
        -50.44399028  Gyration_radius:  2.53858673959 Dipole_moment: 11.224
 S          -0.25392170845828   -0.87656767623276   -2.13303446982724
O          -1.06497629100068    0.26489520343488   -1.68702715842189
O          -0.04587805767101   -0.93442556355428   -3.53926852963050
O           1.19239514621770   -0.59444098733471   -1.43142807267338
O          -0.67449933292883   -2.11107737987410   -1.49106402075737
H          -1.09514231891283   -2.56458880454391   -0.03896066185561
H           1.32826746772537    0.35386124383669   -1.71384097686035
O          -1.05657387092555   -2.88787530709269    0.90668458036752
H          -0.97965231550436   -3.84120942519188    0.83907973626828
O          -0.04549978657003    1.01916610960674    2.15782421973198
H          -0.38343947319915    1.11642160704329    3.04936272829620
O           1.00913122594185    2.99582992335969    0.51047931552725
H           1.86814258559655    3.26295361225264    0.83977586851595
H           0.65314480351333    2.33806536208217    1.13068204087767
O           1.00122156631406    1.88685211002200   -2.02344360073319
H           0.08100684481458    1.60088212686814   -2.15908466721394
H           0.99678379260340    2.39778910849879   -1.19283437618683
O          -2.04787405420111    0.50155475919065    0.65169242761034
H          -2.72257127443866    1.16852791937231    0.51521721419046
H          -0.85753273649019    0.86305954032528    1.57206389264147
H          -1.67973072288910    0.31969759617175   -0.26355850952073
N           0.97745234092976   -1.25908467103234    1.12082356117101
H           0.67879323435836   -0.39555581553057    1.62646049383044
H           1.84244105851276   -1.63379521868060    1.49545115320348
H           0.18341555702030   -1.97613810514297    1.16136417776724
H           1.09509631961044   -1.01479726783090    0.09658360368536
