    26
        -50.44955293  Gyration_radius:  2.67235011768 Dipole_moment: 6.808
 S          -1.95168086536129    1.00646739236197   -2.03291101252685
O          -1.31023748491227   -0.15821180458348   -2.65484484363290
O          -3.18238330340511    1.41654063249242   -2.62665962877336
O          -2.39323117236758    0.43357429342071   -0.55502760213778
O          -0.98091113904492    2.03997507705569   -1.73719999816028
H           0.16270460142990    2.02082208190269   -0.56311377939567
H          -3.33721819941881    0.52108400433554   -0.63936999439297
O           1.08271685355550   -2.24662656601018    0.34529982873883
H           1.09364647562792   -3.19672165673358    0.46337443820118
O           0.85305627084700    1.68032058617179    0.05727126368587
H           0.39087788943922    1.51062583235697    0.89207380891573
O           0.09476753443105    0.72371467006372    2.62906165111457
H           0.07098072150970    1.10984514939944    3.50470676038730
H           0.99497126289349    0.33869596799131    2.50511013513711
O           2.41210506740330   -0.26122331361758    1.76193653113968
H           2.08749456677790   -1.04219924559834    1.28017918111837
H           2.51991106014295    0.44087798474936    1.11266715326980
O          -1.15601705605700   -1.26727669558941    1.22641484557127
H           0.19551366038208   -1.93250087809579    0.69366388534380
H          -0.86366757033545   -0.58730988198691    1.85839897946952
H          -1.64077320033416   -0.77834077692918    0.54178192470871
N           0.99797046959861   -0.36877474156868   -1.61840926115010
H           0.01120531812595   -0.30999139613431   -2.09682087868468
H           1.72127643814973   -0.29396232670750   -2.32494915639649
H           1.04195391222716    0.44709499776557   -0.94375294947180
H           1.08496787869540   -1.24649940651612   -1.07888129212087
