    26
        -50.45862797  Gyration_radius:  2.48047246419 Dipole_moment: 3.024
 S          -0.00889820827302   -0.70090985386491   -2.16506730482842
O          -1.25009529920405    0.05284858113070   -2.05808540022647
O           1.05812470838133   -0.13650763261858   -1.36114603159246
O          -0.21167024739584   -2.12036651929701   -1.91909680566815
O           0.46799143120021   -0.57711408918736   -3.66804323332417
H          -0.15812781900408   -1.11361143939992   -4.14439701479883
H          -0.33501275975097   -2.49998124303764   -0.42956678242051
O           1.75831482723975   -1.27513315892142    0.90950079659606
H           1.70905454584203   -0.82856957297617    0.03469041078508
O          -0.93008231519543    2.02819027586783    1.25898493016826
H          -1.60431842366271    2.69274458321499    1.40810964519083
O          -1.89914258766720   -0.39392245999241    0.48654175108907
H          -1.57448943328644    0.43108973774732    0.90113932492324
H          -1.83066317367074   -0.24274352739015   -0.47849675861090
O          -0.38761747760282   -2.42456949033780    0.58355080999157
H          -1.06377400525307   -1.65887982131253    0.70410026573038
H           0.61786184995565   -1.98319242951580    0.83542090606648
O          -0.07186460000039    2.27801908576070   -1.21120574145175
H          -0.73587915647005    1.72059437267823   -1.65476757072115
H          -0.56488840113237    2.20649120565254    0.34906221445973
H           0.71018126900110    1.70535137127727   -1.22677337904428
N           1.24364008062211    0.64070434675383    2.65015601418446
H           0.93308788059859    0.30370498844481    3.55241024645064
H           0.48689764296503    1.18510476238887    2.24170249813707
H           2.02665351982936    1.26348917338720    2.80153231901932
H           1.61471616208461   -0.55283125635603    1.59974390993589
