    26
        -50.47014111  Gyration_radius:  2.40824467036 Dipole_moment: 4.173
 S          -1.76516368228276   -0.11515238246399    0.58835396085570
O          -1.70109564302563    0.43858619194223   -0.77651510785186
O          -2.44127604474040   -1.37189046384062    0.66295650108396
O          -0.37688115396936   -0.22891405980512    1.10106500837985
O          -2.48575711945298    0.93068241949845    1.47720561369940
H          -2.23619956439089    1.81707642511438    1.10301620516112
H          -0.27488430318940   -1.90525702610975    0.60911050871018
O          -0.11670141844498   -2.71014344471596    0.07787756846244
H          -0.97138660344269   -3.15083551727521    0.08942569524722
O           2.34126281509067    0.37655400498888   -1.04026982453027
H           1.95030165330412    1.16379874614879   -0.61974074303136
O           0.91886704075829    1.98765571204531    0.67023199713727
H           0.40804802890510    1.15814107647693    0.85781135971366
H           1.40045127652277    2.18993287086622    1.47463219873386
O          -1.59049256657464    2.95218601031657    0.10442800253216
H          -1.72157923061036    2.29848090389665   -0.60097876043342
H          -0.63562133651042    2.93189488268508    0.28690854344343
O           2.22707704200682   -1.17034686187289    1.15552138615113
H           2.09136804500855   -2.10931735087955    1.00590091966998
H           1.34597585444589   -0.81273001188311    1.34890710850293
H           2.55883443429702   -0.21058252437268   -0.28446254778300
N           0.21968384257489   -0.90325084022630   -1.89074460479287
H           0.18307061517772   -1.77603148168552   -1.31644112891170
H          -0.59954485219538   -0.30936148914015   -1.54882448383827
H           1.12532229952794   -0.37357566692565   -1.65211787586549
H           0.14632054119007   -1.09760010278184   -2.88325749044653
