    26
        -50.45091455  Gyration_radius:  2.53790652329 Dipole_moment: 7.494
 S          -1.79781619295441   -0.67308428579288   -1.54535375342397
O          -0.44355746495430   -1.20633252599636   -1.34171083991408
O          -2.58105424978099   -0.63321503890684   -0.34601685946738
O          -1.72398156338604    0.59792911543833   -2.25792873653215
O          -2.50705813660055   -1.69198154762323   -2.53358398107765
H          -1.98696430787868   -1.62989082914537   -3.32892452064426
H          -1.28543864831639    1.62686145107883   -1.15492765366690
O          -0.83655531274024    2.22578700132300   -0.49507314323659
H          -1.29136688910108    3.06775209948623   -0.54927375224194
O           2.23237475673364    0.68768907965170    1.66258554141078
H           2.75467675292089    1.33547223988436    2.13539569254587
O           1.93633169343791   -1.96712471800569    0.83915625050614
H           2.15212757096471   -1.16326241302319    1.33192884536499
H           1.80131222146122   -2.65658521909161    1.49099417672863
O          -0.84210161899260   -1.46982213466830    1.48558547444563
H          -0.12231171267556   -1.74643987975181    0.89962838660800
H          -1.59316608567700   -1.28085441474900    0.89191004955738
O          -0.28176995096027    1.05243803174488    2.04396022897535
H          -0.58037145136161    0.10991972180529    1.98201693888450
H           1.26902178969964    0.85223546002873    1.91997485209148
H          -0.64919601765743    1.48901395183622    1.26192696441488
N           1.30199912240091    0.62416125039655   -0.88481294033613
H           0.67276055318796    1.44588775167974   -0.82128254778214
H           1.80961322067270    0.52598877405177    0.02073647670943
H           0.64373019171833   -0.22425516084649   -1.04506426023239
H           1.94876173984665    0.70171224921066   -1.66184688968534
