    26
        -50.45909909  Gyration_radius:  2.47762332717 Dipole_moment: 8.430
 S          -0.50159823390526   -0.41421534164707   -2.39158860798630
O           0.97164051162277   -0.38294563386475   -2.33966903249481
O          -1.05818528550259    0.02141269002747   -3.62457786508428
O          -0.90627294606997   -1.91222997685599   -2.14854914091987
O          -1.02553705721766    0.32085882580289   -1.21445998484002
H          -0.51373565964977    1.62128129288127   -0.59218419038222
H          -0.51876610143109   -2.12355116343899   -1.28049707947867
O          -0.19541479100901   -2.46014750919397    0.41493798983177
H          -0.43961997600405   -3.37240801439824    0.57750031215279
O          -0.14277035085605    2.42285547596160   -0.10404009039341
H          -0.59922587093350    3.17882987029749   -0.47540134549530
O          -0.53966525508408    1.17579965384590    2.27479489436266
H          -0.42678055766523    1.69913628655051    1.45279618110362
H          -0.66790323115478    1.79831979038179    2.99120255600049
O           1.43943549025206   -0.69940982382502    1.72605312144242
H           0.97940976497951   -1.44708588969010    1.30203172788467
H           0.74047497018729   -0.13730885566174    2.10072220101252
O          -2.07986796340943   -0.76304147224474    0.93403747933350
H          -0.98361811016254   -1.89858320833507    0.68349052204560
H          -1.72834746922339   -0.13996104069039    1.58611174499328
H          -1.89039435795100   -0.34411465700208    0.06465767978026
N           2.04631740665280    0.78831231974829   -0.37545715121888
H           1.49206095443184    1.64491888532113   -0.24798692569133
H           1.60070373358882    0.25655234319227   -1.23983382312325
H           3.02213373431086    0.99438427888025   -0.55399291353595
H           1.92552665104295    0.17234086420354    0.47990176040200
