    26
        -50.45436027  Gyration_radius:  2.47641641374 Dipole_moment: 5.648
 S          -1.14944430657279    1.41110277081653    1.19285878126280
O           0.18732289727495    0.79435992703965    1.14946805763844
O          -1.42643328173920    2.22760048839309    0.04736648109800
O          -2.14360070409620    0.38632906585771    1.46661287580064
O          -1.13804701465268    2.36926056555834    2.45643156594665
H          -1.27474402881248    1.79154791472043    3.20187092367952
H          -2.25931476734911   -0.08303989129428   -0.09782365589998
O          -2.14564806963383   -0.46977785605728   -0.99608959623962
H          -2.77444464621073   -0.00990014527691   -1.55537615424070
O           1.86242033092223   -1.77166610441418   -1.20884628824195
H           2.11022246065194   -2.42227580421545   -1.86643719579757
O           2.31707830527616   -1.00941400300523    1.63462690499474
H           1.79740242625759   -0.19722557719560    1.63846830140636
H           2.62750020480851   -1.12209532048970    0.73080275249422
O           0.96813773219271    2.30050484208803   -1.10314703241242
H           0.05569197462876    2.46642773331934   -0.79590640878717
H           1.42374427582257    1.98040601306420   -0.31940927654119
O           0.33369641332920    0.00273711784194   -2.30079229578961
H           1.37618047537861   -1.04406321475606   -1.70216223944219
H          -0.55482950461551   -0.11355423518434   -1.93033950816912
H           0.62438852864543    0.89738571277947   -2.00706381629973
N          -0.17732293667390   -1.70949910851367    0.47698628025516
H          -0.22843159245261   -2.32893599176266    1.27946822432925
H          -1.03741830248915   -1.71862556131338   -0.08015622258410
H          -0.03819350348186   -0.70339876751489    0.81648307248727
H           0.66408663358641   -1.92419058055670   -0.12789456084868
