    26
        -50.45909908  Gyration_radius:  2.47752324316 Dipole_moment: 8.425
 S          -1.25092218191422   -1.08563189526054   -1.84292273822256
O           0.15755963967542   -1.18464880740337   -2.26770832224201
O          -2.18492824603127   -1.00061798261936   -2.91075946305748
O          -1.53984815851515   -2.38731673003477   -1.01282048141095
O          -1.36684160875406    0.02551002042292   -0.86701160986553
H          -0.69286072792200    1.39849115916251   -0.89615031233696
H          -0.88951477805449   -2.35460351403977   -0.28867108973250
O          -0.02811315771068   -2.17737590449907    1.23364856323496
H          -0.19695870147096   -2.96521373085478    1.75235131493951
O          -0.19054149911370    2.27184868667074   -0.83821786836377
H          -0.75056118679745    2.91525777911379   -1.27433141299027
O           0.22279026361139    1.87187554185759    1.81534014133713
H           0.32570092834793    2.69570562513297    2.29266788798410
H           0.05614204241913    2.10000849496491    0.87594444584507
O           1.93021925977999   -0.26693183902014    1.31839041576066
H           1.38810490628667    0.45007789501534    1.68818470856359
H           1.36286836473682   -1.05968801256951    1.32709310063066
O          -1.65365613357255   -0.22541042090432    1.73250534077338
H          -1.76230580341569   -0.11860511461145    0.76097979009774
H          -0.69009881102877   -1.48542625607348    1.53639441524174
H          -1.11286543693368    0.53116616777931    2.00135792688964
N           1.80450042066347    0.42725767060575   -1.23116395618681
H           1.31453102978469    1.33117631797691   -1.22353249155385
H           2.66669632742915    0.47082584197831   -1.76151193862152
H           1.97506756685563    0.12240429794665   -0.22938499557017
H           1.10583569161872   -0.30013527072417   -1.69067139113330
