    26
        -50.46130381  Gyration_radius:  2.47981943292 Dipole_moment: 3.786
 S          -1.78593849602154    0.71374180628830   -0.49196407117779
O          -2.52468143512662    0.92134868303086    0.72917448020598
O          -0.38234156459676    1.04817072134500   -0.41821019791922
O          -1.98671277559620   -0.62285303846203   -1.05242267093930
O          -2.40050339322026    1.72621725590084   -1.55915708298283
H          -3.33293663565518    1.62699492550040   -1.39978456705310
H          -1.72877804572308   -1.76367221691129    0.11930633311272
O           1.90596758038032    0.33746929408529    1.98387889260077
H           2.24146577886645   -0.24086319134416    2.67072736997821
O          -1.40939732242637   -2.39281669550502    0.80807928616292
H          -2.19463778049936   -2.80033240847867    1.17658428845104
O           0.41603468252367   -1.72359491234528   -1.34916769980250
H           0.22033462187015   -2.35027989495883   -0.64317455167012
H          -0.41486719015974   -1.20909193440317   -1.43671879437430
O           1.49412784392222    2.32446290270202   -1.65334071881203
H           1.64728934224339    3.10770058375302   -1.12139218626394
H           0.63593043399937    1.95749136264636   -1.33515258152495
O          -0.64292135570506   -0.19200688100907    2.26838312608959
H          -1.30457911396838    0.37167123179255    1.82790081459477
H          -0.79500211040754   -1.07785587961863    1.89534282809650
H           0.91440216850217    0.27400635278167    2.05182057802360
N           2.31456833462470   -0.01528685632269   -0.61886512104391
H           2.12938252539730    0.90882280527573   -1.08341864161644
H           1.55248849900367   -0.68290738376305   -0.93836067705146
H           3.23480610731817   -0.37185734626743   -0.85144421221937
H           2.19649927046858    0.12532070428725    0.42137575712718
