    26
        -50.46130395  Gyration_radius:  2.47950387276 Dipole_moment: 3.788
 S          -0.96216845128636    1.71403893176714   -0.27189817560564
O          -0.24489263044814    2.46502047874783   -1.27265886400682
O          -1.03329907932763    0.29135323553713   -0.51327773319430
O          -0.50174729862492    2.00187319454546    1.08680242867934
O          -2.47175265107125    2.22318989186034   -0.33320467713461
H          -2.35201432789909    3.16434811068187   -0.40116625507309
H           1.14642365821840    1.85945212378133    1.15815927325594
O           1.37620651125978   -1.87781853786366   -1.50312602987686
H           2.29447543192915   -2.15224091282337   -1.52072501527998
O           2.09891565294340    1.60535564911519    1.17586454798338
H           2.59027012809513    2.42786459439957    1.19961349759492
O          -2.67522086067765   -1.70315821907003   -0.55443753294583
H          -2.25180184603716   -0.81288265703528   -0.53109899331456
H          -2.79398038961338   -1.90275637890807   -1.48495608349895
O           0.17683054103126   -0.31681071359244    2.19852141938902
H           1.10519301131641   -0.05730157202738    2.18272594744459
H          -0.28797261747851    0.47043755058554    1.84212673372758
O           1.76804694672186    0.70975923583693   -1.40345656260543
H           2.07143878482342    0.91929577331603   -0.50286399595154
H           1.40136903361687   -0.88301611165801   -1.54150026451026
H           1.02035059373237    1.31654331131914   -1.55277616953979
N          -0.29103944157728   -2.32094945621834    0.51904066406298
H          -0.13454922827550   -1.51867005981361    1.19755931079216
H          -0.16290918352634   -3.21716625897482    0.97561380885701
H          -1.26478988230791   -2.21703366196083    0.13829744828825
H           0.37861757445632   -2.18872757154595   -0.28717871753172
