    26
        -50.46373120  Gyration_radius:  2.44905193545 Dipole_moment: 3.686
 S           0.01792535444115    1.80271414386500   -0.82242908385654
O           1.15175351918630    0.91614210348418   -1.02062126836885
O           0.26885014840130    2.97985958901139   -0.04963846126396
O          -0.37693025682914    2.29593607839652   -2.29729307676391
O          -1.15051644824313    1.04788299635274   -0.35471893527175
H           0.70025881432777   -0.04236709602769   -2.32384558647250
H          -0.56054297951727    3.22162051268199   -2.17190244471837
O           1.17075017847973   -2.28628977028169    0.90435572126145
H           1.93026200403923   -2.69487719755506    0.48711246041852
O           0.19032845576681   -0.59331887196345   -2.95679093281758
H          -0.29756084216586    0.03649744488339   -3.49107681079330
O          -0.51143215786203    1.35537896890676    2.20004500373570
H          -0.27987629235761    2.28266437982197    2.29715229982994
H          -0.87767999566052    1.28752021210651    1.29667801772576
O          -1.42675641144392   -1.46538303020974    2.02796270415424
H          -1.30562955745683   -0.55956681165635    2.33072332341250
H          -0.58965182914034   -1.91235809398343    2.18178835952165
O           1.82606385447944    0.16061915705587    1.46534040913860
H           1.47770870721325   -1.37811446740645    1.19648790369616
H           1.78262127815351    0.51441249865731    0.55872449985316
H           1.07607591261699    0.57431449460302    1.93391991040497
N          -0.85415751769497   -1.53704001745371   -0.68764597690760
H          -0.07016344341860   -1.88771251826432   -0.07231007027731
H          -0.55507673001049   -1.49732816699976   -1.68444828708928
H          -1.68796527768609   -2.09168050181668   -0.51973902919902
H          -1.04865848761788   -0.52952602620915   -0.42783065935227
