    26
        -50.45433571  Gyration_radius:  2.86637342336 Dipole_moment: 5.566
 S           2.46090216802660    0.23361518701933    1.58045022372503
O           2.52695821009783    0.18770279471089    0.12250288719963
O           3.65949702827798   -0.13958303511807    2.25764716738866
O           2.23013280686682    1.80334898920633    1.93205106443249
O           1.23094085298112   -0.39718540224944    2.05911991011726
H           0.09098769836113    0.77490663332990    2.03727493861588
H           3.12271183337954    2.05107514254681    2.14626893131812
O          -0.95493357824644   -2.03735788246528   -0.66965496592195
H          -0.28724116016403   -2.71361589463533   -0.79651864921538
O          -0.59716218099716    1.44308224008879    1.80002973351427
H          -0.20651008628532    2.28590962824708    2.03864054682275
O          -2.26663959272856   -0.92284423843417   -2.85222866208502
H          -3.20516967076013   -0.87967197300238   -2.66303407142128
H          -1.86046468283671   -1.42014556503769   -2.12275337022174
O          -0.77777389237553    1.33917459827403   -3.10752059201340
H          -1.38330989012777    0.57056130512218   -3.13385712689077
H          -0.26311567980460    1.30864597274678   -3.91493266608971
O          -1.09175355510622   -1.69979260096782    1.91560461456749
H          -1.11759266847857   -1.99870642720560    0.31271262282387
H          -0.17066968431698   -1.40542819197286    2.05940300431971
H          -1.63291417467743   -0.95502421302954    2.19082092814160
N           0.09269514650692    0.52868722490260   -0.65320852864408
H           1.13424787075998    0.43032272888766   -0.42993426298821
H          -0.08877511378665    1.01994003185147   -1.54779670018661
H          -0.30163860764774   -0.42797049232149   -0.71518105341691
H          -0.34340939691960    1.02035340951012    0.15409407610716
