    26
        -50.45102268  Gyration_radius:  2.43927959446 Dipole_moment: 5.320
 S          -0.09244165255543    1.59698735848957   -0.40508613481916
O          -0.80454531249306    2.31798015430039    0.61610905568938
O           0.38857992158709    2.35333139425836   -1.51450731960384
O           1.06825176013969    0.83113569888321    0.24186134892554
O          -1.03261391993457    0.48813250622313   -0.94599371643613
H          -0.75413536721865   -0.44376385163633   -0.65426576041672
H           0.88109480331882    0.78924509854740    1.27414492305920
O          -0.36995330426103   -1.87451149196276   -0.26250205626657
H          -0.75160807902137   -2.46545305702248   -0.91471016064894
O           0.40048712309941    0.80343057143300    2.63701335312783
H          -0.14678486144507    1.59709165495248    2.60620215719910
O          -2.95546172953220    0.80158765554867    1.15491500719888
H          -2.26510169940682    1.47754708941518    1.01845766988132
H          -3.29589523469806    0.60388016496077    0.28028636405402
O           1.50021667914891    0.35074049372439   -2.91260792158566
H           1.75388139191059    0.71481474219875   -3.76289753501911
H           1.10855272501118    1.09174066819415   -2.41413115706861
O          -1.35309944728761   -1.07862774979415    2.25719133199410
H          -2.08099665203002   -0.49708901703124    1.95491332397890
H          -1.03023348827255   -1.54045581542314    1.47115758270186
H          -0.23498018928988    0.02771425309175    2.65029155621766
N           2.11918808720723   -1.63176675950189   -0.89932008015264
H           0.64075005537301   -1.83695808646075   -0.46137981567018
H           2.01519727808498   -1.02066771964902   -1.70920023901283
H           2.53922437644607   -1.07196908492543   -0.16761038741409
H           2.75242675611785   -2.38409686081519   -1.13833139991606
