    26
        -50.45788902  Gyration_radius:  2.41143212852 Dipole_moment: 7.660
 S          -0.68330181934749   -2.16052031354911    0.08855869132335
O          -0.16772931883668   -1.40115132664262   -1.09061715307402
O          -0.21282126171366   -3.50405291604891    0.10984184466968
O          -0.09100183972005   -1.38433111719415    1.33767374869589
O          -2.11230834942831   -1.93931243400722    0.21564822918172
H          -2.18216947369367   -0.54210058223656    0.89937265011336
H           0.88737455260155   -1.32888028251334    1.25925850611093
O           0.74047102289954    2.27937503802758   -0.97813440888457
H           1.05585240669975    3.18346083331570   -0.98438239585901
O          -2.23089339106493    0.42418851436988    1.16608795614522
H          -2.90339070566374    0.47726390830420    1.84613068554270
O           2.15932907643783   -0.14201303720857   -1.39537822931604
H           1.81236154076064    0.76160572508491   -1.42047724483270
H           1.37300716791925   -0.72254507678521   -1.44698988490646
O           2.45666283624570   -0.78169864007097    1.12353802938538
H           3.06656551540052   -1.51541819806977    1.21199023205791
H           2.48094998031631   -0.51202848954850    0.16402779741177
O           0.41682983642678    1.43692328584397    1.47196330297771
H          -0.44016270398652    0.97855344181671    1.51920263574420
H           1.08569887422408    0.76861703126226    1.66119036443132
H           0.66922665172315    2.01167199906100   -0.01773354593143
N          -1.46032445435287    0.75079351653809   -1.37160878437209
H          -0.72510883588826    1.47844310794998   -1.43188083360360
H          -0.93660940557306   -0.22991158962809   -1.30479495493922
H          -1.96563866615360    0.84197190786793   -0.46980929908603
H          -2.09286922578758    0.77109569394333   -2.16267795922517
