    26
        -50.45866421  Gyration_radius:  2.70502150098 Dipole_moment: 5.339
 S           0.50978479841896   -2.00183104900757   -1.65920353639403
O          -0.89793157848066   -2.28972767781433   -1.42626350679069
O           0.76403171255725   -0.59283323994491   -1.87632625146975
O           1.35066472125276   -2.58727051279145   -0.62421107122627
O           0.90564670001760   -2.73497862559378   -3.01114032870894
H           0.77568997525419   -3.65190787970518   -2.79122759333980
H           0.97182737629249   -1.84684395700670    0.67388613324590
O           0.93777136446090    3.08464277501700    0.49356722879636
H           1.66362023272471    3.62223976133970    0.81270081794146
O           0.72343979661245   -1.34404400459913    1.50678709663872
H           0.85020771547810   -1.96308186652894    2.22772873862372
O          -1.20752894431938    2.62443887162516    1.92173882235342
H          -0.36320167740617    2.83841156785722    1.44327282103719
H          -1.85978207355754    3.23540400329952    1.57462433026806
O          -1.77665643461669    0.12257063932802   -1.51951588456560
H          -1.66300956966428   -0.85825188689038   -1.58775711892599
H          -0.92747448859438    0.43505458695161   -1.86528559519148
O           2.01704678318965    0.72218904213530    0.07307168738601
H           1.33701845503220    2.20382435006348    0.27011696440202
H           1.80648355143528    0.10207163009929    0.78209533974399
H           1.67790994261734    0.29414603620244   -0.73885026478848
N          -1.52605577800288    0.11506409836367    1.08004078315236
H          -1.65531107950492    0.17708336015962    0.00875654496208
H          -1.41498715872227    1.08886579802096    1.47389090049533
H          -2.33207303778213   -0.34676480266332    1.48812089030818
H          -0.66713131468203   -0.44847099792617    1.26938205203075
