    26
        -50.46809162  Gyration_radius:  2.53191686832 Dipole_moment: 1.637
 S           1.10385664693932    1.12469645978356   -1.45464599751185
O           1.98935094811805    0.22850527652836   -0.72056812915809
O          -0.13535663172672    0.47961863406628   -1.82919996561145
O           0.91567538811599    2.38801481276054   -0.76453763428981
O           1.85149814461154    1.48614668016028   -2.80399544127974
H           2.43862958847479    2.16599664087498   -2.49248981145022
H          -0.09163542959326    2.32582840860531    0.46039379207001
O          -0.07929289933865   -2.43762082195829    0.98451872757022
H           0.58199951964751   -2.62601965359173    0.28462885364012
O          -0.64409978765177    2.26923612579310    1.28602948723827
H          -0.65370317328549    3.15634739705849    1.64948576828354
O          -2.76855234060906    0.62322522470689    1.35979096781990
H          -2.07136392186055    1.30821991421602    1.28237914545414
H          -2.67540435016019    0.25264907426024    2.24002724714064
O           1.65887788439985   -2.37498375163815   -1.05515407996560
H           1.76195319182967   -1.39826782840433   -1.01541643378402
H           2.54662368630716   -2.73229722680114   -1.00317443388851
O           0.88461428556113   -0.04826764143333    1.71903586061908
H           0.34705877260289    0.75190978685557    1.78924597076719
H           0.28841622285531   -1.66009266356373    1.45851752542158
H           1.41130645224160    0.06930195653728    0.90645741024451
N          -1.75445973283956   -1.08061590149551   -0.46664889587867
H          -1.11234607060543   -0.48284099825573   -1.05142371172405
H          -1.13051631817518   -1.73428296634413    0.12804394157926
H          -2.28447012280708   -0.44911560254561    0.17714238906085
H          -2.37865994301407   -1.60529133623605   -1.06844254236836
