    26
        -50.46815421  Gyration_radius:  2.47605265544 Dipole_moment: 5.897
 S           0.78082185538271   -0.15943781150636    0.80693638186695
O          -0.11341779574997   -1.27679203902937    1.13872470517644
O           0.09009515746014    1.11117519211459    0.98422546489337
O           1.95314100981216   -0.23038420565605    1.80817314606409
O           1.30703778175650   -0.31045623546588   -0.54320070871380
O          -1.94725163173521    1.04033298550585   -0.75881483713409
H          -2.50746636475981    0.42784050195679   -0.25785162597504
H          -1.21255920159260    1.24981364871066   -0.15066094633062
O          -0.54212868972758   -0.44122782905093   -2.41462509946202
H          -1.14357866203204    0.24251765561768   -2.02480374309303
H           0.29513280460656   -0.31776743669121   -1.91417737490124
O          -2.76311613853370   -0.96239832974616    1.00470458129921
H          -3.20263099583119   -0.63739455310949    1.79162792992056
H          -1.80840255937569   -1.00817591775332    1.22487684313515
O           1.79366569776634    3.09146387016702    0.55308202272778
H           1.08398170197857    2.42566084290439    0.68029097448985
H           1.75155896655512    3.67548302126464    1.31194668116856
O           3.49724535299676    1.05247768358401    0.22871385963336
H           3.00229625366846    0.59622293210502   -0.46816209931223
H           3.09034763578005    1.94281292176052    0.28804170678483
H           2.68861658269793    0.25512222894769    1.32666172270245
N          -1.23299066470086   -2.39553979844431   -0.93411400833323
H          -2.21069734124808   -2.31168342931179   -0.65551120717785
H          -1.00648596276674   -3.34012615876756   -1.22443458044461
H          -0.98734783445393   -1.62919730923562   -1.70729647373494
H          -0.65586696795826   -2.09034242086873   -0.09435332524815
