    26
        -50.44926358  Gyration_radius:  2.43996419644 Dipole_moment: 5.012
 S           0.35884870721778    1.74179221319540    1.24905786886465
O           1.49530669392554    1.90776837615457    0.38298243937800
O          -0.67674224424039    2.71531691866215    1.13718060042366
O          -0.24726389710220    0.33481792440316    0.99114253911934
O           0.85095580017138    1.61694589644006    2.70539638406822
H           1.52312209148259    0.87828831556614    2.63328591424784
H          -1.20836453102087    0.45011532493346    0.67456965647787
O           1.31410590031953   -1.92510514031425    0.04744287075526
H           1.66336817226262   -2.80438736842501   -0.10667752150919
O          -1.34720340446275    0.42679067718415   -2.28954651079836
H          -1.41502989390105    0.97084838496949   -3.07530746270949
O           2.48691863968164   -0.18453456540122    1.85796999102516
H           1.99834576044357   -0.86778625280316    1.35932934412165
H           2.74859171378835    0.46490338285699    1.19356738303986
O          -2.50840334889609    0.95795254130828    0.05754383308356
H          -2.32011588052833    1.87551451100783    0.29934255605286
H          -2.23626646542255    0.84028744993906   -0.88106700564290
O           1.20692280535548    0.23578498242070   -1.70357116069062
H           1.33214413120688   -0.57942406924126   -1.18824868099818
H          -0.37288280394867    0.35120381467322   -2.09513333392822
H           1.38635828177054    0.95419053943977   -1.07241882462860
N          -1.32205524916480   -2.12688873906611   -0.46992023702767
H          -1.44851775632021   -1.45492505088485   -1.21993414310256
H           0.32438855545616   -1.98742609699325   -0.03839161582221
H          -1.85562925724267   -1.78835091933825    0.32118756804037
H          -1.73090252082473   -3.00369305068141   -0.76978245180672
