    26
        -50.43529484  Gyration_radius:  2.78692448196 Dipole_moment: 1.600
 S           0.64213454945464   -2.75426267309959    1.04648317046201
O          -0.22684142123716   -2.99677595499209   -0.05580256320839
O           0.32177803525573   -3.29822490430680    2.31838265646123
O           2.09261446288264   -3.28384686455392    0.65602370888230
O           0.88886562885415   -1.24183230506241    1.19230471122626
H           1.17058456940697   -0.84754924159078    0.26705959305090
H           2.43056599671252   -3.65465380660993    1.46696531279541
O          -2.18917349055947    1.05853539640824    0.15481407682610
H          -3.09011794852244    0.82058418366131    0.37452911092099
O           1.65768142482014   -0.21679531641260   -0.96038146114166
H           2.59937671611627   -0.38228029636318   -1.03644135872949
O          -0.07018473076253    1.34413265893129    1.89398966701625
H           0.24778391420424    0.44011138844107    1.99270710093931
H          -0.89909414238231    1.27500553213304    1.38654198990947
O          -0.99635950267878    3.15093599032068   -1.15628857308238
H          -1.50978845531739    2.43916440717283   -0.72978601289896
H          -1.22038850216938    3.96034630628040   -0.69422225821679
O           1.36169952993893    2.19398377961039   -0.20543003323637
H           0.63498768693584    2.60592122176184   -0.71510740159351
H           0.96409487156702    2.01217878036009    0.67705556654858
H           1.55912064174945    0.77836448470489   -0.72375140151199
N          -1.26327218994576   -0.74895743871207   -1.50617678072062
H          -0.37552759840662   -0.39837411550870   -1.84851911183929
H          -1.05441533389594   -1.61342789167750   -1.00844915992263
H          -1.84638331923861    0.34396702324904   -0.47539059303318
H          -1.82974140278651   -0.98625035414992   -2.31110996588621
