    26
        -50.45481277  Gyration_radius:  2.63488294343 Dipole_moment: 5.278
 S           0.90543953344645    1.63928494177283   -1.78102338000054
O           2.32161769568157    1.51244647493419   -1.52792937370095
O           0.42269660743928    0.57619548433437   -2.66912103432645
O           0.11546075440512    1.71413465420696   -0.56263486549002
O           0.67052696162315    3.00870813016526   -2.54508397062883
H           1.32353091531985    3.01063158591138   -3.23967981113313
H           1.07964390962080    0.88545186291740    0.51469627338395
O          -1.18610287398175   -2.15185423340882    0.19768894247623
H          -1.67073398090263   -2.95606126563186    0.38439504887194
O           1.78382121552040    0.26208942651410    0.81521573663386
H           2.58678781300957    0.67355732074801    0.47435324888944
O          -1.91092826271352    0.62233979531688    2.73855832282026
H          -2.77291899443499    0.56443291519886    3.15121887615634
H          -2.07440537984120    0.71615618353906    1.76829548734560
O          -2.22173791773812    0.53890664008975    0.09198974847293
H          -1.99434674492814   -0.38349997635030   -0.08562847965664
H          -1.46415673454826    1.06702024477234   -0.22015899769191
O          -0.06246164505098   -1.26329245553555    2.35458772496306
H           0.70724250763064   -0.75366869379565    2.07057426593203
H          -0.71166365978530   -0.59012379171417    2.65850081085110
H          -0.78532592732957   -1.84884256328152    1.07128870553636
N           0.99939066656537   -1.39991468573080   -1.13938151982811
H           0.73604704263294   -0.65110568286149   -1.87498447693872
H           1.63601890418796   -2.08588172630790   -1.53005058522191
H           1.44043509042481   -0.86485605337868   -0.34414011316129
H           0.12612248376869   -1.84225455244473   -0.77154661454217
