    26
        -50.46815425  Gyration_radius:  2.47600667421 Dipole_moment: 5.895
 S           0.90682365211813   -0.37408203126469    0.56953083776716
O           1.10430776734692   -0.48655028857187   -0.86965982456852
O          -0.07085710738646   -1.36948375064285    1.02947942353774
O           2.23497190515295   -0.71058274355627    1.27985568321735
O           0.49222499614236    0.96681148546000    0.96013827737402
O          -1.29619463070269    0.04715557899301   -1.94066081145810
H          -0.35572877181283   -0.07728816983896   -1.70922910083040
H          -1.71241127821974   -0.80055172831603   -1.72130069889452
O          -1.87150561795074   -2.37053940720291   -0.67166017427592
H          -1.10003135976552   -2.13694583356632   -0.11282169112462
H          -1.61367795130424   -3.14667023631993   -1.17080760633448
O          -1.87082254791750    1.67868846395964    0.03907268039836
H          -0.95505341938619    1.66840916758209    0.39668667854434
H          -1.77098617136808    1.26438404200528   -0.85510401477143
O           3.00293919177278    1.19986321965936   -1.61831602523877
H           3.64803090602288    0.69969316638350   -2.12068665292581
H           2.25817998279715    0.58582533280505   -1.44096778717888
O           3.08773929471736    1.68240243002875    1.01310466044922
H           2.15502791311719    1.92279734052523    1.11804779922406
H           2.72628775637889    0.16506936438898    1.26260520043486
H           3.24567126954697    1.69389716831538    0.04524370553691
N          -2.48454897202724   -0.42925461731449    1.33101292085933
H          -2.36407801302011    0.54897591852436    0.80786324315868
H          -2.98987502189078   -1.08536188810502    0.73539712636725
H          -1.48803504818744   -0.79498243559360    1.40003276486998
H          -2.91839869417636   -0.34167956833514    2.24314336583952
