    26
        -50.46017939  Gyration_radius:  2.7022564767 Dipole_moment: 2.939
 S          -1.51528177258633    1.19132782715191    1.80678078924129
O          -0.34739389335087    1.53507793005913    2.59149913520238
O          -1.61269080588573    1.99038716620435    0.58828137633724
O          -1.63224709992698   -0.23281286849556    1.53889852719382
O          -2.78377302140820    1.56821282804323    2.68583447901790
H          -2.59578177054602    2.46546864192598    2.94334716604886
H          -1.47445888086617   -1.15451485639573    0.21291114115361
O           2.13698909786631   -0.17883423105113    0.31169545044165
H           2.92088138948429    0.30352203252416    0.57683437414979
O          -1.32189115297606   -1.56769493602636   -0.67373774613402
H          -2.18693066672492   -1.82379920073515   -0.99649837162246
O           1.32736842616308   -1.86298249398630   -1.79631096156514
H           0.45824995829274   -2.08916361665035   -1.44214109506405
H           1.81054018217143   -1.45920187439096   -1.06055285495081
O           1.02407254210418    0.25848621839241   -3.47500802573071
H           1.18749631370953   -0.58016610790494   -2.99225822735973
H           1.45378142200674    0.17091640096136   -4.32535045641176
O           0.88520568442478   -0.76383017712473    2.51095247221012
H           1.69960100753442   -0.47499268090360    1.16317453552901
H           0.54741580670519    0.14083238610529    2.70141281069422
H           0.08107564720614   -1.25349550147501    2.30676270927974
N          -0.00872168532376    0.79086405663342   -1.04806125466739
H           0.87098997104208    0.58267676728051   -0.52817571764076
H          -0.52296623823720   -0.10920831751844   -1.13391328088717
H          -0.62804319550359    1.43499718614540   -0.47567056523349
H           0.22651271460921    1.11792741119475   -1.99070639937105
