    26
        -50.45999351  Gyration_radius:  2.6178782515 Dipole_moment: 5.254
 S          -1.74272634169981    2.00453835232487    0.32959924675140
O          -0.56733989320207    2.58033846147430   -0.31621440055143
O          -2.47107615428883    2.88989426918691    1.17971247322903
O          -2.75262812088147    1.64882319250665   -0.88488092781610
O          -1.39845925148411    0.70833702220263    0.91864187084631
H          -1.05249052397855    0.04345066751843   -0.47137316463191
H          -3.47896806221118    2.22962528315227   -0.68306616585959
O          -0.87129144026438   -0.31371647579510   -1.37981629094899
H          -1.44215765952692    0.21163549426780   -1.94526045324946
O           1.33307092476043   -2.36147692787440    0.75411954036796
H           1.63645391552609   -3.12969301826590    1.23906401932391
O           1.84762116556635   -0.53901617594832   -1.30465146294780
H           1.88836014508872   -1.24684701521827   -0.64260057882273
H           0.90050471215035   -0.46126810062314   -1.52853772839538
O           0.80142529032348   -0.06250919208696    2.22759543927774
H           0.97654120013299   -0.92900030733245    1.81805930343563
H          -0.11306644649126    0.16443239199789    1.96794783850113
O          -0.79560414570547   -2.94003596598132   -0.74640223744982
H           0.50259667831412   -2.62824214783204    0.29285364266855
H          -0.99562774578848   -2.01132705353170   -0.98237367497883
H          -0.62291811127119   -3.39671517383636   -1.57160784824744
N           1.71465884691093    1.52829555851732    0.34794720167368
H           1.48136400687980    0.97687608983690    1.22919331241252
H           1.94130080462819    0.81537848040293   -0.39750178256695
H           0.81497731995026    2.02500413843123    0.05909850380922
H           2.46547886647901    2.19321812249201    0.49045434412819
