    26
        -50.44112687  Gyration_radius:  2.56530419712 Dipole_moment: 6.753
 S          -0.45404393012306   -2.09878055445257   -1.23955571976287
O          -0.63099147248453   -0.93595003893632   -2.07878373535014
O          -0.01045284344166   -3.28123290368627   -1.88800690724216
O           0.47447827450227   -1.72477883395918   -0.05715298764693
O          -1.78194466221034   -2.38529482556750   -0.49614810315061
H          -1.92031784433265   -1.61695875207321    0.12209969684894
H           1.00027897620015   -0.87375498097440   -0.21044995285241
O          -1.88967092817050   -0.23111481154036    0.96506340962369
H          -2.73998683944568    0.14231612932268    1.20704267116892
O           1.76485837613779    0.49468001786918   -0.13994950506111
H           2.67220028316153    0.21702762585230   -0.28032130002373
O           2.10962153028774   -1.47133657581159   -2.34614971478726
H           1.81969207417347   -2.38885236245122   -2.36231721777040
H           1.37077042877724   -0.96881454787879   -2.70216179888835
O          -1.08486450911027    2.94502688478577    1.45321806620563
H          -1.03062757766561    3.89393006988428    1.33317962132585
H          -1.08519254511364    2.55502797138343    0.56657579345492
O          -0.72242972122184    1.38371535346298   -0.84525076512499
H           0.23377622745487    1.37147052079227   -0.68587630173051
H          -0.84386296983015    0.65426235821232   -1.48733188531222
H          -1.45686586993272    0.42644764171168    0.37060783365542
N           0.83233662195100    0.80155273430836    2.28017747320825
H           0.22728652035395    1.61859634535285    2.22345919916881
H           1.59143007481660    0.64593992667482    0.84494790914092
H           1.32959743170533    0.83782557612999    3.16057269569278
H           0.22492487355063   -0.01094996842467    2.29251155522181
