    26
        -50.44840775  Gyration_radius:  2.46554455489 Dipole_moment: 5.048
 S           2.16459222300621    0.18104047941292    0.56576904613521
O           1.53894902447685    1.42111123046945    1.22246324923246
O           3.51622833850188    0.06566557571563    0.96627910130508
O           1.30945866891310   -0.96051296959227    0.82187863247067
O           2.07176036753431    0.48985919851355   -0.95833156252708
H           1.41659822426729   -0.12497645179484   -1.40229785646676
H           0.35886873235131   -0.61489569773659    2.18969887692265
O          -0.24899172749667   -0.22359414538338    2.84932097195134
H           0.15118381725269    0.61517707673843    3.09264328336832
O           0.38945185906327   -0.99756132686865   -2.25036925658546
H           0.86065799464258   -1.72417280118062   -2.66075065057447
O          -0.21203686561499    1.68312372223394   -2.50641692449051
H          -0.16349764700305    0.72370531625178   -2.63338022251121
H           0.69043339338394    2.00499457376999   -2.57064338057439
O          -2.34168677937745    0.10935433797958    1.24299038999099
H          -3.07141439606474    0.51389690574500    1.71442487657636
H          -1.64293178072425   -0.07909046440280    1.91692831322198
O          -0.66367834222418    1.91932637383594    0.12857238351296
H          -0.59567822120969    1.88389228420310   -0.85143357326756
H          -1.33395403571199    1.25908711419139    0.40129721205787
H           0.63328688656297    1.64774558172341    0.77299908255059
N          -1.06287673610100   -2.02568368102117   -0.37338286141986
H          -0.24267267169712   -1.41284361457397   -1.55757178225226
H          -1.78187957889622   -1.39707011628912   -0.02957925700387
H          -1.44188065992453   -2.96333732255209   -0.38773527012703
H          -0.29829009766244   -1.99424117946604    0.29662715842209
