    26
        -50.46846775  Gyration_radius:  2.39960749383 Dipole_moment: 5.639
 S          -1.66246976696587   -0.60539598536732   -0.42901878549291
O          -0.92938118154666    0.12265362366383   -1.49329959532534
O          -2.30893874986279   -1.78583339478069   -0.93508225682161
O          -0.74498429243017   -0.89976817115916    0.66589360436833
O          -2.74196272978330    0.37991133454893    0.11229273948967
H          -2.24577964005431    1.09782108617880    0.57415737341350
H          -0.19499361995610   -3.24160196170803    0.47461122246394
O          -0.18496468658499   -3.30332485846732   -0.48532902327386
H          -1.04479721104421   -2.90186553987891   -0.75139841991092
O           2.41056845547801    0.53248183210150    0.36700381438748
H           3.28715362859998    0.55288587081468    0.75277363156082
O          -1.32235475415475    2.36826497620817    1.17214948005512
H          -1.86078665228222    3.15993933305463    1.12106851354362
H          -0.63524932491626    2.44660369172334    0.45203391905567
O           0.42489250006862    2.26990024059420   -0.76559595236961
H           1.24248647566653    1.85229901646873   -0.46171618588840
H          -0.09825844793410    1.54964596559137   -1.18069154880269
O           0.63928740776246    0.61624151935706    2.26659845418471
H           0.09640739159604    1.41325333033064    2.27019649660899
H           0.07902593654534   -0.04501403382657    1.79973681326538
H           1.76934458664610    0.57281585644380    1.13876392199074
N           1.24306449407820   -1.24201453540679   -1.34448371590910
H           0.37353880543988   -0.64281626570271   -1.54611509285448
H           1.78396427640038   -1.41288116742334   -2.18581303044391
H           1.79510363949930   -0.71419271309221   -0.63525247929430
H           0.83008346975163   -2.14000906027207   -0.95348389799898
