    26
        -50.46400454  Gyration_radius:  2.43652587709 Dipole_moment: 6.308
 S          -1.87928105183586    0.57147467848584   -1.10444353631950
O          -2.84905486048602   -0.38754982437933   -0.62700219657747
O          -1.60176998360493    1.63156687669521   -0.16418943171009
O          -0.65654151343887   -0.06229121561405   -1.60349382311619
O          -2.51426761130987    1.25310547583875   -2.39459030767340
H          -3.33753758678552    1.57714865505919   -2.04552270050810
H          -0.22632248242455   -1.51241265913862   -1.11952172839564
O           0.15077206996957   -2.36244688792240   -0.75874450506249
H           0.02828356194771   -3.01504678889558   -1.44922623247248
O           0.71305774893477    0.12920996692722    2.36618972127522
H           0.61883634014308    0.08171340862412    3.31820102630043
O           0.72665287836577    2.47123881634176    0.77129610777173
H          -0.18709455268749    2.33809222127813    0.44329080965782
H           0.80831654376374    1.83457918591940    1.49516421235901
O           1.67587549629287    1.12029118714554   -1.25587100862552
H           0.80563772404650    0.78737800986180   -1.57098972206189
H           1.43600810447357    1.80151396644756   -0.57010272387080
O          -1.30562979002124   -1.17024067785478    1.34356542208652
H          -0.12600642388608   -0.25597584066219    1.99017595963204
H          -1.97724138717334   -0.79591573388869    0.73542307593145
H          -0.89817645779823   -1.88568634403288    0.83815419760219
N           2.14873565313551   -0.85483792661691    0.28813036583397
H           1.52686158840640   -1.59828183072364   -0.08584546087312
H           2.05131448056926    0.00880606582697   -0.41652982763134
H           1.76265566528148   -0.53189420276705    1.19690969950351
H           3.10591584613166   -1.17353857197212    0.37957261694199
