    26
        -50.44548429  Gyration_radius:  2.76402060445 Dipole_moment: 6.190
 S          -1.45093088251834   -0.87290795634982    2.37773310950482
O          -0.25030092563171   -1.71539589898201    2.36736516918301
O          -2.21641139063103   -0.93827318607883    3.57727973134285
O          -0.87119379906755    0.64567834333133    2.31067975029004
O          -2.18329651043291   -1.01174142955018    1.12664437656107
H          -1.70687109909059   -0.61634816102723   -0.25310452053150
H          -0.75166282555188    0.82191633713880    3.23796891701170
O           2.82528129731890   -0.89577254061027   -0.71196115343094
H           3.57084704699839   -1.17503876143321   -1.24364737688410
O          -1.33204603536260   -0.44668693821589   -1.17776186161272
H          -2.03820898828293   -0.67433947305403   -1.78514829651018
O          -1.23584504065037    2.16405470353851   -0.01673107791763
H          -1.13812960702286    1.81021650174118    0.87788863025187
H          -1.39364497245331    1.38795386623806   -0.57165652232991
O           1.08453985449271    3.06322544780908   -1.01341480162810
H           0.91923187760924    3.86751965269445   -1.50651064375447
H           0.24313756352990    2.84181084682769   -0.55454242110778
O           1.21222670076959    0.62177792981692   -2.13064282211482
H           2.31747309875185   -0.24032718874628   -1.25880830963997
H           0.31844539270838    0.34016139417785   -1.89918868972412
H           1.29241688299973    1.53792359654598   -1.78811059422617
N           0.56468907945937   -2.11854213569277   -0.00879377659348
H          -0.10028331325995   -1.60480537774454   -0.61140832593448
H           1.52846993101809   -1.73232576042187   -0.17112582248931
H           0.25512527303409   -1.94614184375323    1.03080688580125
H           0.53694138127342   -3.11359197819756   -0.20380957351511
