    26
        -50.46846773  Gyration_radius:  2.39954414094 Dipole_moment: 5.640
 S          -1.70243183296021   -0.28472780872633   -0.57861524152545
O          -1.19926066559657    1.10800669183198   -0.66329643473734
O          -2.41257099683263   -0.67120000739971   -1.76758283190476
O          -0.58763598716629   -1.17714624582183   -0.28194492344029
O          -2.67602165758972   -0.32549164970994    0.63772996236735
H          -2.11389337895492   -0.19577618029391    1.43908573981392
H          -0.04253482948040   -2.28765213664495   -2.35054494266933
O          -0.21482140250191   -1.55669895364287   -2.95181529534595
H          -1.11682884597115   -1.25427046099022   -2.69430840525032
O           2.42567281142322    0.41705734518186    0.41197039263386
H           3.35933181994216    0.26933766132612    0.56722163176074
O           0.22970749363573    1.99627694479546    1.37232713983281
H          -0.35013430566581    1.82376884878382    0.59855918000163
H           1.09759087985645    1.64744753033795    1.12653451142620
O          -1.11605521110874    0.21564562825225    2.72700737528345
H          -1.66836522957944    0.62488602169061    3.39539267860989
H          -0.58095336910596    0.95023921456726    2.31353191927327
O           1.04966996927846   -1.34637696668202    1.73482118071066
H           1.94364813134882   -0.28288744004727    0.94683898977245
H           0.50300920432258   -0.97793945730178    2.43865623269198
H           0.42270612822225   -1.44993781427924    0.98300402256379
N           0.98528473100388    0.56016291201657   -1.90062377631285
H           0.08268611548660    0.92342923127450   -1.44312531447773
H           1.65340891524206    0.39151222177846   -1.11875804926999
H           0.67086314882470   -0.34055096803732   -2.36946514466557
H           1.35792837393088    1.22288580773800   -2.57260060714688
