    26
        -50.46684114  Gyration_radius:  2.39839476465 Dipole_moment: 6.389
 S           1.09080407677372    0.03479928099460   -1.01766423997259
O           1.44976960749545   -0.83484880276064    0.11789285837384
O           1.42318661166435   -0.54959651235839   -2.29050170676285
O          -0.34898550161643    0.34303308474065   -0.94531118831673
O           1.84720681399264    1.36816351149162   -0.84126575128313
H           2.04192211819958    1.44238702742750    0.15698448253510
H          -1.31992677530096   -0.04331324931684    0.26247038736448
O          -1.89377586086511   -0.39223441808321    0.99576282644209
H          -2.75919939448478   -0.00155240790300    0.86191763755266
O           2.14655366047872    1.23955155994573    1.67127765332997
H           2.13407449511014    0.27894055356699    1.55823682039497
O          -0.62466095318921    2.87491600504836   -0.13930031096410
H           0.17646214924962    3.33728614935189   -0.39426156047915
H          -0.56321954105010    1.99505745429643   -0.56060258310609
O          -0.67221096347663   -2.08595815145779   -2.50813763575545
H          -1.34066130697847   -1.42576805921978   -2.70791433990141
H           0.18353344671518   -1.59052394931659   -2.56452032077814
O          -0.39496646535995    1.69230319235796    2.29387669290336
H           1.26089934147273    1.47503629311912    2.04683059765292
H          -0.57885364966844    2.28699716584118    1.53891697656920
H          -0.90712453536021    0.89070937636385    2.12202578787263
N          -0.48766038002104   -2.50773973593786    0.08617901737167
H          -0.36717985898696   -3.44899680787569    0.44378412468414
H          -1.22860622594314   -1.98217972765875    0.58452087015077
H           0.40636360945196   -1.90909557458418    0.19039570993215
H          -0.67374451847450   -2.48737324795237   -0.96159280582943
