    26
        -50.46072735  Gyration_radius:  2.44905259136 Dipole_moment: 6.376
 S          -0.52127116589212    0.74024752144253   -1.64198145471763
O           0.84872871047753    0.20126648224905   -1.59982596029506
O          -1.38236824297742    0.01593403041849   -2.53061284918754
O          -1.06606682978975    0.73186245577224   -0.26090521180620
O          -0.42160809693640    2.21332791946069   -2.09720868469641
H           0.40365088727702    2.59610125376677   -1.68558361445270
H          -1.81187911146287   -0.76357309641565   -0.42189934749485
O          -2.01584326885868   -1.72120301863178   -0.52636090814994
H          -2.32664759758956   -1.76652119865368   -1.43650779592218
O           1.10162598313489   -1.28295596375293    2.10458158395278
H           1.41275777947973   -1.55078536804007    2.96967778470155
O           1.06375604198406    1.50008976018915    1.13057162176983
H           1.47124146081859    0.66379977532499    1.37929718831401
H           0.24987944351353    1.25870448062157    0.64275512710437
O           1.61822579972522    3.20798941637755   -0.82103299275328
H           1.61128768657409    2.56450781754044   -0.07536744656301
H           1.34035126613227    4.04853336819827   -0.44987387019833
O          -1.44106449118662   -0.54525707602083    2.14722852342515
H          -1.40015467347447    0.13905533465567    1.45871429980216
H           0.16538372153759   -0.97815468138897    2.22364953737082
H          -2.01774758652635   -1.22558675079071    1.78762188643711
N           0.63750725612839   -2.04896573309010   -0.45449104190503
H           0.82444924084092   -1.10211048444707   -0.98994466105065
H           0.95842553585474   -1.92054422624452    0.52327556264667
H          -0.40909621412442   -2.15046291204458   -0.46909881770902
H           1.10647645542463   -2.82529911652873   -0.90667843869011
