    26
        -50.46635646  Gyration_radius:  2.53605181334 Dipole_moment: 2.269
 S          -0.30676213066824   -0.98815950000759   -1.97874136348380
O           0.71340562604944   -0.18731294214493   -2.62036594284778
O           0.17066211301572   -1.57300465690061   -0.72748070409997
O          -1.56350162185607   -0.28308111519328   -1.82498890446987
O          -0.60361110628096   -2.22840902245394   -2.91908388852659
H          -1.05497853601964   -1.81860714282813   -3.64946046286482
H          -1.42044767316910    0.97664104402709   -0.86183060223147
O          -1.26517606661694    1.77686897109397   -0.29297890871536
H          -2.01045531606209    2.35827863426836   -0.45444208252436
O           1.22162695052867    0.41443497289475    2.87355869901029
H           1.40974660640235    1.26102761138758    3.28101504119845
O          -1.72585110175016   -1.92528580718930    1.11698059933142
H          -1.11446653207801   -1.81359818311151    0.36198943859814
H          -1.44547754031171   -2.72055187334025    1.57285216584310
O           1.31680185109853    1.93230055808381   -1.16746880941023
H           1.16044441176452    1.28591696755301   -1.89011644279973
H           0.42717112346810    2.13103279950187   -0.82393205854533
O          -1.27406302006097    0.52589569375962    2.17254564704389
H           0.23543094057826    0.41614561005175    2.68974791729625
H          -1.29067051972958    1.05135529584874    1.35352407996231
H          -1.55942557490078   -0.36886627164430    1.89911861133036
N           2.02001089845847   -0.05022670475138    0.38935160710832
H           1.77924694202944    0.11525315432872    1.40719247042026
H           2.96988065636376   -0.38959782779001    0.28644207249995
H           1.34204188824212   -0.74542341811731   -0.01861374650016
H           1.86841672130593    0.84697313268675   -0.17481444226922
