    26
        -50.46201625  Gyration_radius:  2.56989796548 Dipole_moment: 5.090
 S          -0.83710810143532   -1.55579222879816   -1.16253106122834
O           0.33355711526499   -2.07222650188107   -0.45741547857761
O          -1.82658870232999   -1.00766377607345   -0.26110232124651
O          -0.44032464837303   -0.63515210882109   -2.21268555361019
O          -1.51413823042697   -2.80278862351296   -1.86545109198037
H          -0.79870882640213   -3.17671922440831   -2.37027785350181
H           0.77098959925952    0.40164794199867   -2.05640523431084
O           1.50967348297574    1.05991459526753   -1.96075940756867
H           1.91757632107836    1.10211953958253   -2.82708188419548
O          -1.14091232627458    1.45426990526164    0.53176132732282
H          -1.60421839403266    0.68865741554835    0.14214443485061
O          -1.33070698279514   -0.92051597790101    2.39902751516866
H          -1.69870890085059   -0.03963337944198    2.50878780002022
H          -1.51091892480692   -1.14968863619130    1.46705170884947
O           1.24884130907286   -0.83737159801207    3.12582600724174
H           1.56370967348673   -1.74075390445152    3.18499272861473
H           0.27382531427803   -0.90538194404138    2.99675043329988
O          -0.22824492211919    3.09345188854058   -1.41833145929083
H           0.27380046385964    3.85774023376087   -1.13197218268844
H           0.41830631545048    2.41387823820295   -1.69719602436349
H          -1.02402174508557    2.10722919312874   -0.18678409546863
N           1.15776715143758    0.14939963319244    0.65469788545910
H           1.45725022218876   -0.06684271228814    1.63188957976553
H           0.27627401177184    0.74805575235262    0.68267598604202
H           1.86110839923629    0.60691934825862    0.07754350121034
H           0.89192132552448   -0.77275306940094    0.20484476014522
