    26
        -50.44926351  Gyration_radius:  2.43989783473 Dipole_moment: 5.003
 S          -0.89860085522728    0.99803496518595   -1.70824101469696
O          -0.16274090717930    2.12921698383578   -1.21024588458808
O          -0.46344000262341    0.44932382787664   -2.95015575270369
O          -0.86319591074893   -0.11832182843003   -0.62850272506283
O          -2.39869729661728    1.35426285018752   -1.75215440002969
H          -2.56279154477771    1.67054405757398   -0.81654136245359
H          -0.41485952305763   -0.94058391951306   -1.02882925541698
O           2.47588315138911   -0.99047061563792   -0.36065017165080
H           3.35697577680524   -0.80691697764068   -0.68915288677353
O          -0.60073759084769    0.41854490783182    2.21359386702113
H          -0.67082326925118    0.38671245131679    3.16907750466494
O           0.44647126836169   -1.90543906585059   -1.83762919554532
H           1.30076179739542   -1.67710552023021   -1.40515671847800
H           0.37742284750412   -1.36972724632390   -2.64011936581304
O          -2.14586966090841    2.14267250506329    0.68835719760549
H          -1.74211951985048    1.43404771232340    1.22583491353290
H          -1.39979977928032    2.66507441510507    0.36884012715237
O           1.55534508020861    1.24799216131624    0.66170399499829
H           1.06834532031199    1.68547408553430   -0.05803816231378
H           0.87199768636764    1.01644617991827    1.31380805884846
H           2.15218642636716   -0.13711601161668    0.03914931526838
N           0.18021862310230   -2.05730446980050    1.49329301245211
H           0.33841522240161   -2.78018387213362    2.18493354663154
H          -0.45349066827938   -2.42690549602845    0.79539848609054
H          -0.40992634096539   -0.50867896095281    1.90609303045941
H           1.06306965939013   -1.87959312892666    1.02533384079940
