    26
        -50.47068127  Gyration_radius:  2.43144878953 Dipole_moment: 3.163
 S           0.08232743738862   -0.67735579844584    0.60788010131087
O          -0.06974575471585    0.69481157537092    0.10746753291475
O           1.43706351854646   -0.74777258503460    1.36622723923171
O          -1.00254806101940   -1.02257160699972    1.49856073296242
O           0.23487273672074   -1.62236360776843   -0.49894362790127
O          -2.53249183344714    0.15916864139620   -0.70305766333855
H          -1.69998435692175    0.53851179524950   -0.35626686067894
H          -2.79591546329881   -0.48477257645689   -0.03993393500047
O           2.57319335134390   -0.63393701296618   -1.36353474805515
H           1.80398177363647   -1.13092724575407   -1.02876588335648
H           3.09815983960977   -0.43373743196723   -0.58599882954644
O           0.88719889308260    1.23429221700982   -2.33483831974349
H           1.69391808000265    0.69153388868018   -2.22640455170313
H           0.56355162127052    1.33065613672628   -1.41722667253628
O          -1.24765467877337    1.36756578477335    2.58815163235202
H          -1.34540084344660    0.44424927588846    2.27192151825984
H          -1.04510794147685    1.87617075964178    1.79695193082612
O           1.10671887940887    0.64657170624218    3.51724181724057
H           1.37484811181400   -0.19535304070198    2.19981673241703
H           0.23343956279221    1.06225617802106    3.29776602994677
H           0.94108947743936    0.05032805123974    4.25080669659362
N          -0.87829386910985   -0.64360167412861   -2.63671885004897
H          -1.75778328842173   -0.30908476119814   -2.18824951889062
H          -1.03456521456159   -1.14757392950256   -3.50214315833924
H          -0.19791272572040    0.18912901559957   -2.73523890502012
H          -0.42295924214846   -1.23619375488786   -1.88547041988201
