    26
        -50.45777590  Gyration_radius:  2.47462670808 Dipole_moment: 6.815
 S          -0.83876491302205   -1.95722378444601    0.58986421467379
O          -0.78439848091146   -1.94297599281771   -0.88238827032533
O          -1.25276676299915   -3.18351282593839    1.17282980689600
O           0.44323782127058   -1.44539492704127    1.11635178283196
O          -1.91185691079112   -0.85908392395377    0.97815441323002
H          -1.71175327456146   -0.08201169905308    0.42087664835889
H           1.60250439087839   -0.51534706048432    0.65839386017708
O          -1.38714156093107    1.44149864239573   -0.30212120121022
H          -2.10642089291398    2.03289391518359   -0.07317833299101
O           2.30752270747282    0.09394357897031    0.29112669787445
H           3.12045953426665   -0.15310789339280    0.73390052057786
O          -0.22591035747596    0.16566916260885    3.09166814521956
H           0.06348967002587   -0.54115435281216    2.47447085428422
H          -1.16699326027421    0.02026780954120    3.20951612397357
O          -0.62215748159724    1.23442871914167   -2.87111108723797
H          -0.92177894333363    1.41261249622169   -1.95320631290119
H          -1.35989354487009    0.80709667527185   -3.31071431872636
O           0.53675288629174    2.00167345160365    1.29627488127470
H          -0.61041228248317    1.71468277595988    0.29125948628647
H           0.27502660619868    1.47005276387534    2.08317302442585
H           1.31336436122550    1.54641680681161    0.93489760711565
N           1.07874278020269   -0.64874561935490   -2.01012091115322
H           0.56115186257796    0.13766707974581   -2.46991568444422
H           1.71396983085523   -0.28417834279259   -1.27597362327559
H           0.30203115168277   -1.25693220044762   -1.50590180460685
H           1.58199504322237   -1.20923525475070   -2.68812653034245
