    26
        -50.45971322  Gyration_radius:  2.45360473967 Dipole_moment: 7.639
 S           1.47025498538371   -1.76946214689806   -0.68591136739457
O           1.30249146015770   -0.75778298019319    0.39124564755838
O           2.31250480233325   -2.84683296834354   -0.29543731834021
O           0.12768603563719   -2.18107278989308   -1.14136750345489
O           2.12508284003456   -1.00368392289310   -1.87364430226619
H           1.47420493282872   -0.29609209260146   -2.08816720122259
H           0.33318696304923   -0.78453317171672    1.60736745683430
O          -1.95280764442539    1.30088653856387   -0.70695708960256
H          -2.56071852599036    2.00010985544826   -0.94864559553040
O          -0.38258973120773   -0.75182462238692    2.30838520565735
H          -0.04608347433291   -1.25557188146462    3.05019949037955
O           0.47520419408887    1.04009808061440   -2.11906576804325
H           0.96797322370298    1.55479865764582   -1.45812047880877
H          -0.43390246512116    0.99771997418756   -1.78530823429904
O           1.81737904950772    1.76091233301956    0.17135886667906
H           2.75465626395243    1.93108445903542    0.26915532874669
H           1.70179074644787    0.77703262141853    0.26157555899747
O          -0.61147456694457    1.92152325724770    1.43835416136604
H           0.28485440218048    2.05872892129960    1.08485349289546
H          -1.46770426112205    1.61317857240307    0.11237802273291
H          -0.56715748900007    1.09126324749556    1.93695056652961
N          -1.86343627940797   -1.28233274105576    0.10492921007498
H          -2.08162137070696   -0.34913819508072   -0.28901232943490
H          -2.65609807163994   -1.91012998705792    0.04247585556198
H          -0.99020356734695   -1.69265117861050   -0.46801163071708
H          -1.53347246206142   -1.16622784019034    1.08041994510079
