    26
        -50.44555166  Gyration_radius:  2.55418198145 Dipole_moment: 9.504
 S          -1.29426400642485    1.65162867056472   -1.70708476770611
O          -2.28276373028509    0.58530842302631   -1.85858441626322
O          -1.41298847541740    2.76290100638383   -2.58453928259973
O          -1.45173000988669    2.17626903420120   -0.22294785901600
O           0.07801050860489    1.05050101626446   -1.72082201592229
H           0.91187545388646    1.39776708196111   -0.43404466033119
H          -1.76187622405685    1.38327965848268    0.27223883775105
O           0.82607891097867   -2.29972192311748    0.84313409749133
H           1.11536565716313   -3.17530997231460    1.10097415185066
O           1.46251196499814    1.51618412647791    0.39062128334927
H           1.51044374101480    2.46390234742437    0.52412338570358
O          -2.08005383751154   -0.01781742334446    1.10292328434929
H          -2.82679923664248    0.16007599300496    1.67566321956234
H          -1.26862923864513   -0.01112454294100    1.67621401803753
O           0.24124897892901   -0.00363072495940    2.32171697468859
H           0.49710578007672   -0.88536191472839    2.01234275609535
H           0.69461168541414    0.62507467566421    1.72724221180791
O           2.88363300093250   -0.78582403650111    0.09397049173584
H           1.62022113859344   -1.82162796965333    0.50597226320369
H           2.45932795160871    0.09388288486205    0.08995164880410
H           3.68135687301470   -0.69525820931211    0.61779629431611
N          -0.71754659932787   -1.29509468316606   -1.26838744502717
H          -1.64012593183528   -0.75390153421188   -1.33778742548511
H          -0.10346452480256   -0.43728741237846   -1.49510284588187
H          -0.49095409202555   -1.67482739409998   -0.34153482990605
H          -0.65059571836240   -2.00998717759552   -1.98404934058776
