    26
        -50.45313689  Gyration_radius:  2.52894746605 Dipole_moment: 7.528
 S          -0.72717823223361   -2.05709328188779    0.92819000178056
O          -1.25561477606674   -1.39679471273526    2.10425511160813
O          -1.02443637988901   -3.43691844303674    0.75884420435097
O          -1.07461807112661   -1.25817914796002   -0.29280027789229
O           0.85760385939483   -1.91038650104577    0.98337151791947
H           1.04651243298746   -1.07890192636805    1.46096143561204
H          -1.66374615217832    0.18770256795465   -0.39319616200889
O          -1.95660971925840    1.13576505207196   -0.52553339614176
H          -2.91457608892573    1.11738522925602   -0.49397898142557
O           1.46122702761691    0.44238657220905    2.12859705434857
H           1.70955224295539    0.29996594680760    3.04287501018544
O          -0.61715215271868    1.30227209051921   -2.87364366907430
H          -1.27807096287865    1.19572497276658   -3.55919963345179
H          -1.10717730600671    1.38751363454354   -2.02636224576368
O           2.52761766105212    0.92312367735648   -0.29895354057232
H           2.29475523399471    0.73155261629879    0.62949503897041
H           2.29050910996484    1.84038451195438   -0.45163526981358
O          -0.99351595265718    1.18858723444076    2.10057103043811
H           0.53639032779623    0.84527162663688    2.14796352468447
H          -1.30986367308240    1.43493275519880    1.21797810774914
H          -1.23924127255051    0.23440042755978    2.20508896811748
N           0.90881356530871   -0.63850415331180   -1.77685470410474
H           0.45005772990475    0.04968583775704   -2.41114878539704
H           1.61717504889400   -0.12602895257681   -1.19581569616558
H           0.12038670198673   -1.00973581756142   -1.12800899484531
H           1.34119978772515   -1.40411180685767   -2.28105962911807
