    26
        -50.47298401  Gyration_radius:  2.48773638044 Dipole_moment: 1.929
 S           0.64162711629589    1.42638085008638   -1.46949896229207
O          -0.12530990246099    2.55101287573678   -0.97324934152568
O           1.81905347715740    1.11745768867120   -0.68646561735501
O          -0.19787713874583    0.24950103030328   -1.68419897563786
O           1.17115030434266    1.85621907376594   -2.90088897787840
H           0.42045566609108    2.31566458020358   -3.26195988870282
H           0.90392679336965   -1.02631633043069   -1.63019229862642
O          -1.78320826939997   -2.44636719384803    0.86126416289336
H          -2.05559550952990   -3.04547663154210    0.16459165228580
O           1.71573384282680   -1.47911028354266   -1.31461929475573
H           2.30025200601456   -0.72542829959736   -1.14538290273049
O           1.08002572202832    0.59326218794540    1.81234096060140
H           0.23437514303651    1.07537658814966    1.85699453224344
H           1.48489993180110    0.87902779467130    0.96663878727673
O          -1.18640578689355    2.02590898323642    1.33494710884461
H          -1.47849230813364    2.83976757481648    1.74852338919254
H          -0.80655073885951    2.28403896957190    0.45556326036967
O          -2.31775544787835   -0.07309212014015   -0.08076334729992
H          -2.07796526566167   -1.54050631212114    0.56259866200735
H          -2.14934099870560    0.63583517795077    0.55781923317891
H          -1.62499996116697    0.03577866190613   -0.76220077608979
N           0.81117378028504   -1.93212380333517    1.13183339152470
H           1.32461572583241   -2.58707169005775    1.71070258288836
H           1.21643184738392   -1.88572378241123    0.14980122565442
H          -0.20811693358620   -2.20151649978557    1.07045183376409
H           0.88789689445160   -0.94249909015516    1.52534959023462
