    26
        -50.44657213  Gyration_radius:  2.48380798952 Dipole_moment: 7.291
 S          -0.96767353906030    1.15858225350217    2.04488150049657
O          -1.69671944108585   -0.02236971374844    1.68111926637232
O          -0.94479193803794    1.53833638832334    3.40851653822699
O           0.52248170946622    0.95715377379959    1.53446320581434
O          -1.40169442416415    2.34211399102648    1.17020709255192
H          -1.43940596399481    1.99083819031020    0.21702336343207
H           0.75601289464307   -0.01921933839762    1.45629908813734
O          -1.27793120981013   -1.19348270976708   -1.72300830841013
H          -2.08715337721583   -1.43523537852037   -2.17546375667568
O           1.34558074989125   -1.43945340511042    1.10946898457519
H           2.20680181709404   -1.53709465356772    1.51886792871042
O           1.44868676399346    2.04966039826190   -0.80248658950931
H           1.58429354794524    2.99722539743465   -0.74541287840698
H           1.23098826884567    1.74637751595254    0.09791141817166
O          -1.21506688952179    1.45253508097754   -1.20169286736495
H          -0.27335117166010    1.65622664042002   -1.33442384274081
H          -1.30363411576886    0.48289413569122   -1.33637338098959
O          -1.24538189366656   -2.41415008603560    0.59926100757114
H          -1.28384879674152   -1.70047734031535   -0.86442818779704
H          -0.31828844578039   -2.44039031698849    0.86701163334869
H          -1.61168269658227   -1.65497124274143    1.08817773174591
N           1.63783952393181   -0.89457882650050   -1.42445174527256
H           2.29863290514008   -1.38382679471916   -2.01354079935439
H           0.70502927785859   -1.05250305773105   -1.79678904031856
H           1.50205002940721   -1.28409089786781    0.11179257876623
H           1.82822641483637    0.09989998625311   -1.48692994112342
