    26
        -50.45443516  Gyration_radius:  2.84972394178 Dipole_moment: 6.265
 S           1.33435880212692   -2.45158114558840    0.08116851460405
O          -0.11834160931002   -2.35285506362950    0.21424561819860
O           1.79935219169322   -2.47081859547993   -1.27405644455513
O           1.98473043137171   -1.40872400039358    0.88915686993874
O           1.72840253575151   -3.83625205247482    0.75599334497263
H           1.19124519392981   -3.86233574136083    1.54296108471215
H           2.36505069272779   -0.22542267323575   -0.33240746730131
O          -1.23321100027543    1.16179020628176    1.53151852649622
H          -1.91235119939415    0.55596935238056    1.83588775762938
O           2.23407497691591    0.18500709422821   -1.21047296359067
H           2.36615451764769   -0.56691425597595   -1.80385677170801
O          -2.16585029599487    1.27070758051602   -2.50803875864568
H          -1.87305898351001    1.72247369229294   -3.30071650191964
H          -2.26015190360841    1.95443156477441   -1.81657656861247
O          -2.16863430852318    2.98155284230081   -0.37386182911800
H          -1.79164346942068    2.48299505019700    0.36878554875932
H          -2.91732169599022    3.46836177039287   -0.02662070955371
O           0.91585634564296    0.18127870222627    2.65037745412648
H           1.65705042596573    0.74867874904479    2.86916611580793
H          -0.40799626832962    0.88278875625819    2.01181350727084
H           1.27604910678540   -0.48568798346539    2.01247412634257
N          -0.41045433308662    0.01654976784856   -0.84264230844323
H          -1.06045579912711    0.24827580295482   -1.61631524436843
H          -0.68744911116696    0.56645299846799   -0.00719731621488
H          -0.43352208052003   -0.99939330319424   -0.55390722649979
H           0.58811683769839    0.23267086463106   -1.09687836832074
