    26
        -50.46125373  Gyration_radius:  2.40948068676 Dipole_moment: 3.117
 S          -0.05848561750061    0.44833093851456    1.00674444297805
O          -0.24464817427185    0.52058744563672    2.53862508150512
O          -1.37808955923226    0.32147795563387    0.40844972524423
O           0.60500739396342    1.67746146433921    0.56227327716973
O           0.77611659114497   -0.71545754018350    0.70672462925236
O          -2.12148528877171    1.51721459029740   -1.85380520598517
H          -2.41007391673639    0.73432647029514   -2.33508658404781
H          -2.06019149531725    1.23773164299125   -0.91686155936237
O           0.84779133971146   -0.69330517942239   -1.94816761662279
H           1.04239633401984   -0.80633559072568   -0.99259329931847
H          -0.06163814986509   -1.08229076942023   -2.04398344366617
O          -0.72861765557475   -2.96292433144021    0.51555026082051
H          -1.22824688685794   -3.02069272528645    1.33089189992640
H          -0.11063731635991   -2.21670331578730    0.62929504427571
O          -1.64111420056434   -1.46489320530720   -1.58906751389696
H          -1.68679692321175   -0.85971904186647   -0.82262592293133
H          -1.49661014154558   -2.32880533590321   -1.17261172301713
O           0.41635855536941    1.74950299632444   -1.92623599010986
H           0.67762019985316    0.70744466815192   -2.06975767860434
H          -0.60286238382146    1.78592432008032   -2.03969003825958
H           0.55711887996277    1.85969437442127   -0.90090468174678
N           2.32512670149179    0.73063503068665    2.65353739272947
H           2.43044318484689   -0.08147035994338    2.05566529852826
H           2.34820718448164    1.54690856706608    2.05331722697658
H           0.70351141585281    0.62418884590603    2.84660085998032
H           3.09979993910048    0.77116807551022    3.30371611877989
