    26
        -50.46901623  Gyration_radius:  2.49020180054 Dipole_moment: 1.715
 S          -1.54361990824354    0.63964090916294   -1.26024791253329
O          -0.77949372929194   -0.25296907487556   -2.12799512274498
O          -0.81014088211495    1.84106793106353   -0.93415044456382
O          -2.81391536027387    1.10252266334520   -2.08471930773526
O          -2.05741461971250   -0.06152416140114   -0.09399385192409
H          -1.72295641249837   -1.73788627672168   -0.35877643850490
H          -2.48427063283693    1.87663866358307   -2.52840286564187
O          -1.26964585050696   -2.56453487434862   -0.61329451299986
H          -1.06600856926792   -2.43526689069782   -1.54389972155806
O           0.84542396030297   -1.99567394436520    0.93160209018365
H           0.11899633263355   -2.42964502488894    0.43005446244869
O           1.48824423582161    1.51217938743469    2.40542417008188
H           0.63981717962181    1.03543702441077    2.34579393878140
H           2.11189431347414    0.90733175261614    2.81054534161036
O           1.76606354863820    2.03953331829904   -0.23211689519874
H           1.74940402819664    2.02177576970882    0.74643386006061
H           0.83863180869079    2.19524337300016   -0.49842630482627
O          -0.71934046954561   -0.07527882739273    2.14096808151162
H          -1.22802045390830    0.01899324787394    1.29793041273499
H          -1.37792081593782   -0.15659520208364    2.83294813905930
H           0.38548502498324   -1.39235198318218    1.53976173410648
N           1.61131122913112   -0.42915521316852   -1.04962764395084
H           2.35848763147688   -0.77744428995419   -1.63993906099877
H           1.44120523734659   -1.07646167403249   -0.22185804923396
H           1.81465473499498    0.57110249658788   -0.70923563614277
H           0.70312844883248   -0.37667907996601   -1.58477845202084
