    26
        -50.46815190  Gyration_radius:  2.42858161489 Dipole_moment: 6.879
 S           0.28206617721122   -1.47062555538643   -0.92028721794567
O          -0.71560251831474   -1.03530957672396   -1.87366563276801
O           1.00133872288626   -2.65656954202173   -1.28560368207526
O           1.36692580556591   -0.27265811996508   -0.86089979674902
O          -0.24052852860580   -1.49043476398245    0.44800985958037
H          -1.50383793974962   -0.70668136643540    1.03787373697518
H           1.70117353309836   -0.34851001394484   -1.78199092573885
O           0.28207047430872    2.20267273069172   -0.25729116423536
H           0.83985424495028    1.46578236998349   -0.55546852863128
O          -2.18807584927537   -0.14860462778426    1.49526335224969
H          -2.75581795474317   -0.76284389120982    1.96276256640936
O           1.64655177908394   -1.09502542018557   -3.31344770799600
H           0.73300473664132   -0.91508183355738   -3.56271610878136
H           1.60460951311964   -1.94424056170340   -2.83705966393216
O           1.62683350874278   -0.59317523356209    2.03313873532596
H           0.96921032793927   -1.08893750821988    1.48841037838019
H           2.36233159299889   -0.43129198455087    1.43738101076625
O          -1.97567806829185    1.14081639521134   -1.04253242955862
H          -0.61151555102958    1.99412693797999   -0.64207304532625
H          -1.58946979762978    0.34076766182293   -1.46174627348502
H          -2.39676687186945    0.82285064163245   -0.23469028941365
N          -0.09168197140188    1.41900897358681    2.18011637034242
H           0.07335960727751    1.88065020506854    1.21026093724615
H          -1.00453354562458    0.92242118900815    2.11753468986421
H           0.65976601554029    0.67966643006532    2.28046357297543
H          -0.07558742283918    2.09122645418277    2.93825726650882
