    26
        -50.46901617  Gyration_radius:  2.49020799165 Dipole_moment: 1.720
 S          -1.62471414716415   -1.12624730784180   -0.68692333231029
O          -0.62954465062530   -1.34006119472253   -1.73451380226525
O          -2.10373699361517    0.23668600509497   -0.66134519559107
O          -2.87272720193559   -2.03100856827499   -1.04979512299639
O          -1.15003040036651   -1.59913876504373    0.60415485583916
H           0.33267174167670   -2.43356465214849    0.29147815810130
H          -3.38035255267023   -1.44640412897279   -1.60247758744303
O           1.20711092681200   -2.66477974288623   -0.07655133695465
H           1.05288606861303   -2.69954271579592   -1.02485919990023
O           2.24712330938578   -0.30420421452682    0.65140943905387
H           2.08578084127641   -1.25027934593958    0.43575870332843
O           0.08087269946798    2.70559022466532    1.72134554517314
H          -0.03641479180649    1.76851429169236    1.96378998399624
H           0.99529969830665    2.92258798186551    1.91022093623920
O          -0.65523529004731    2.47875436523107   -0.87071393796743
H          -1.36055317706142    1.80448403602109   -0.81459030412836
H          -0.47454360129025    2.73453302626035    0.05666297434196
O           0.03280676089866    0.02763902584072    2.25932384981564
H          -0.15627773073382   -0.31551509220725    3.13436051013323
H           1.61083339368367   -0.11146951033990    1.36091721623331
H          -0.48677807088299   -0.53543808021049    1.63372406615807
N           1.07935554168623    0.64551276411809   -1.51654691520551
H           0.41920975193304   -0.15311827146899   -1.71718598112495
H           0.45896536533529    1.49585070468152   -1.29341362710603
H           1.64757719967759    0.36489944767991   -0.66124342806297
H           1.68041533903536    0.82571972738511   -2.31298646699927
