    26
        -50.45175610  Gyration_radius:  2.78263864082 Dipole_moment: 4.595
 S           0.27023380287126   -2.51292678940918    1.31920750948906
O           1.00532080428151   -1.49646064686214    2.06754495295522
O          -1.08724810425814   -2.10657549080204    1.01791239762090
O           1.00224663076664   -2.95205862838172    0.14204893929274
O           0.15653269627714   -3.77423924609575    2.28159952371863
H           1.06434196030693   -4.01131638034821    2.45007803467655
H           0.51391858833496   -1.90350739817357   -0.96165454044856
O           1.64622018465265    2.60368398809720   -0.48341055967754
H           2.57505629435198    2.82680701473564   -0.41970760942634
O           0.04830925969387   -1.18175858591659   -1.46394695104509
H          -0.86538099471275   -1.47572635192654   -1.49857262151607
O          -2.25562331543493    0.19250765757566    1.60513291409543
H          -3.09267107897040    0.18583717725951    1.13882498634163
H          -1.90308955896611   -0.72395270817840    1.53502547296106
O          -1.16734522816823    2.54935307511801   -1.18182746971583
H          -0.36066694225546    2.92447376911102   -0.80851960883195
H          -1.87122225484335    3.17790665209543   -1.01912333132845
O           0.89716724383426    1.20886849338174   -2.61685770610885
H           0.79267633370471    0.26829335325614   -2.40685456965972
H           0.00577391960985    1.57789677348031   -2.57659801493760
H           1.52925965494570    2.11486911999387   -1.33724213022816
N           0.22971033212394    0.53416541538401    0.64802105131094
H          -0.72371089737250    0.75204109586995    0.99812200297903
H           0.80656568079803    1.37408503440073    0.48527102392510
H           0.65826912308209   -0.15417026759326    1.33007906122656
H           0.12535584561364    0.00190387396901   -0.24455275761931
