    26
        -50.44603968  Gyration_radius:  2.46211644463 Dipole_moment: 6.861
 S          -1.05735191509228   -1.92026836161040    1.13360069214077
O          -0.59733976471836   -1.98637954794452   -0.22564218626223
O          -2.22788038023316   -2.64517559216954    1.45988560362637
O           0.10345115478469   -2.25230334018931    2.08019283298515
O          -1.35979237704434   -0.39831754177729    1.44269169883978
H          -0.53547122436313    0.14401899498501    1.64985135157009
H           0.92549823607315   -1.85868558091837    1.63286989872517
O           0.61981981569394    1.18190929646429    1.89501273905796
H           0.34549235061860    1.81011432864858    2.56468566959538
O           1.83937660645773   -0.13391270980852   -1.59947029150872
H           2.47291470937989   -0.61534542487578   -2.13322167600161
O           2.01650038200235   -0.99747412000809    0.97287546123119
H           1.87666600612126   -0.15688099467691    1.42967457426338
H           1.90046228457375   -0.79631392061829    0.01761621817780
O          -2.20612053153811    0.91661624869300   -0.83959387855170
H          -3.14295793940419    0.77577005265898   -0.98783672548004
H          -1.97710809209920    0.41149181645547   -0.03948037419786
O          -0.58390151223691   -0.63143663483579   -2.51107979937256
H          -0.66417097982486   -1.35640963687129   -1.86732717013641
H          -1.17111105258754    0.05515516356563   -2.15784567743375
H           0.94715330004416   -0.33177685033916   -1.99157284080276
N           0.49373232993719    2.23457724822516   -0.46350925789950
H           1.11019972609214    1.62653866282587   -0.99611319949569
H          -0.45483477850113    2.06039451307900   -0.77991594848471
H           0.59544788102196    1.66976425423504    0.98994736819101
H           0.73132576484306    3.19432966679841   -0.67629512276833
