    26
        -50.47114555  Gyration_radius:  2.41066789023 Dipole_moment: 3.627
 S           1.66723498301892   -0.07362988164457   -1.11188259502703
O           1.95931763619291    0.85492029180939   -0.03211667193393
O           1.41719340850323   -1.42965484260123   -0.65235377102516
O           0.61552615988911    0.41480981035000   -1.98700746831815
O           2.98441390104264   -0.15786870776976   -1.98710109605539
H           3.15572190165642    0.75650443274443   -2.18534436362992
H          -0.75899248468488   -1.19255252114737   -2.44645127591171
O          -0.88741087925529   -1.87537369655633   -1.77705232881524
H          -0.00415376696475   -1.91865528259619   -1.34531262000985
O          -0.82685164245823   -0.31794238807577    2.36957775638539
H          -1.05162189621160   -0.59222107425429    3.25937678977725
O          -0.03125740330277    2.18398682102307    1.20568660620661
H           0.77569830330802    1.83008341451431    0.78526599630342
H          -0.34457893049826    1.48512916242977    1.79543121071262
O          -1.43628598103902    1.78475124165455   -0.99523961822344
H          -1.00379056063373    2.18168523666694   -0.20189015030629
H          -0.69074042655207    1.40412115063828   -1.50671357933608
O           1.65440762994203   -0.94155854565110    1.91302005392175
H           0.12516714232487   -0.60059766859136    2.22705634763634
H           1.60707320539256   -1.46524530271511    1.09181062805075
H           2.00979132816008   -0.10077209278775    1.58264044793471
N          -2.21269135846525   -0.46214310021423    0.01649691890607
H          -1.75290558772010   -1.14794768006692   -0.65513075765657
H          -3.20790052525881   -0.63723293055805    0.09636600648347
H          -1.75157474290003   -0.50721723179330    0.94590192550722
H          -2.01078941347132    0.52462141516857   -0.40503440156529
