    26
        -50.46703702  Gyration_radius:  2.47707687875 Dipole_moment: 3.488
 S           1.17935490840193    1.52915386290279   -0.90385145347111
O           0.92671025694576    0.21908722144119   -1.49340341432022
O           2.52564396339048    1.71689927046941   -0.45040047837213
O           0.94830020926412    2.55941923563069   -2.10546583902676
O           0.16159790867083    1.85405937246437    0.09269345260098
H          -1.14130706683503    1.44664752558792   -0.80216976578451
H           1.59950180133911    3.23727503154456   -1.95291635448528
O          -1.73837227088644    0.99211070646522   -1.44279500089656
H          -1.15214559682718    0.79562666659685   -2.18053811687235
O          -1.79575264823499   -0.65943262845890    2.45941233428973
H          -2.28909573144877    0.09128136776603    2.79398296035341
O           0.26846618421996   -2.31791640937604   -0.89844542743551
H           0.52621866384891   -1.48163689295406   -1.33060521107847
H           0.94390804973293   -2.45113686472161   -0.22446550613042
O           2.39137098613667   -0.92488003268945    0.49754311109318
H           2.01260605644499   -0.43653093287518   -0.25384670047304
H           3.21246839475985   -0.46489202572333    0.68901030502226
O           0.61620193225095    0.28507684125640    2.21052115527911
H           0.45963091345101    0.98606874682083    1.54857380060130
H          -0.84080451758924   -0.36570067584730    2.45797575842211
H           1.28230743114079   -0.29458978447914    1.80166486834666
N          -2.04012000895064   -1.27559121306373   -0.10215919836298
H          -2.01424130747553   -0.36522189712035   -0.65173882347297
H          -2.86896655691845   -1.81338050420397   -0.33038444388557
H          -1.16470503250512   -1.80989798262408   -0.36223673939075
H          -2.00877693232115   -1.05189800481635    0.93404471746030
