    26
        -50.46843465  Gyration_radius:  2.53724610587 Dipole_moment: 4.842
 S          -0.00423097165318    0.89783070794865    0.21458141823026
O          -0.30701530506885    2.10844264779411   -0.67269875644025
O           1.11051815644224    1.23455609743795    1.07545120837890
O          -1.19665153908506    0.55120393510081    0.98665175068067
O           0.35904567912408   -0.22501982163875   -0.67927814744510
O          -0.18387612328914   -0.18447232337176   -3.29384207874205
H           0.04261122307876   -0.30420148944931   -2.34887550374146
H           0.50847143080466    0.36280198460326   -3.66818115310896
O           3.38196079251421   -0.07369178551909    1.22416742238639
H           2.60160240754789    0.53161102070425    1.22014611025202
H           3.97930774468997    0.26455716026315    0.55573667342192
O           0.02061310188991   -0.65585166741515    2.95083326306444
H           0.60549120213876    0.04333682740744    3.25700352025677
H          -0.57749459663742   -0.20690800935619    2.30651865284635
O          -3.26853071717645   -0.23804671511393   -0.42917127076821
H          -2.50232048947379   -0.02793480704026    0.14982303949911
H          -4.04382122037780    0.08965690910296    0.02985763587989
O          -2.13170147921908    1.35774926946864   -2.25080731890108
H          -1.59881437797297    0.77734267753560   -2.83282549774396
H          -2.67829978708878    0.75006953403869   -1.70449217406337
H          -1.07994292100366    1.86270984773858   -1.31010670965623
N           1.40187816466235   -1.82999710080514    1.04358799720843
H           2.35765613217528   -1.41534826643667    1.12889762913870
H           1.41074500005941   -2.83401587756537    0.90256468052627
H           0.85435079390420   -1.53711486231180    1.90807717756389
H           0.93844771901079   -1.29926587311995    0.23638046127558
