    26
        -50.45212408  Gyration_radius:  2.50361609426 Dipole_moment: 8.228
 S           0.10388314087578    1.08852458050974    1.94997101860136
O           0.60509597966994    1.66396977181204    0.68109812694599
O          -0.15858162851695    2.05723528737708    2.95746221707612
O          -1.28244402489149    0.40052128543834    1.50681752389086
O           0.92290837725767   -0.04657584732297    2.35243478920316
H           1.18216630462470   -1.25543183450015    1.46566814708261
H          -1.63791092802278    0.96341789727360    0.78887659776288
O           1.35161184593794   -2.01468058478646    0.81622441466183
H           2.07942928005841   -2.51098378224556    1.19184688691921
O          -1.52808063559028   -1.00308512818102   -1.89085131824138
H          -1.96549611424958   -1.57387142044426   -2.52313202625789
O           2.74051943570963    1.95934092819333   -1.05703445338879
H           3.24609433027979    2.77201914825081   -1.08811627857962
H           2.09283982087456    2.07079994641484   -0.34071539950722
O          -2.34118660692608    1.36834731376211   -0.72675942604052
H          -3.29692023944984    1.39508214169169   -0.65604619734367
H          -2.11392629279535    0.58893514341220   -1.26540852648764
O          -1.36947304103236   -2.11478804760247    0.45345319946826
H          -1.49350544137496   -1.32897420527401    1.01526005791259
H          -1.52889279613424   -1.49338881221638   -1.01498439961970
H          -0.44266319895592   -2.36745714340756    0.59845674725653
N           0.96726201872867   -0.14576964291816   -1.07718661703755
H           1.72895478692987    0.25798320734062   -1.62331509762479
H           0.13997340107393   -0.37671534540083   -1.64331664057636
H           1.27990895128086   -0.97419565882139   -0.53323503777848
H           0.71843327461323    0.61974080163971   -0.33746830835079
