    26
        -50.44983136  Gyration_radius:  2.44684407278 Dipole_moment: 9.722
 S          -1.91362510910674    0.42335072478841   -1.05871840490399
O          -2.13403737911294    1.55417545853401   -0.14676974130686
O          -2.38719634751261    0.61285060024982   -2.38889049413652
O          -0.31954486524570    0.27506608020321   -1.10634000282035
O          -2.30818392595300   -0.84290317396948   -0.43797472108454
H          -1.11559358062375   -1.90004856880151   -0.83811027916479
H           0.05394581844162    1.13187014085529   -1.38940746102540
O          -0.35820213422464   -2.50928775493258   -1.00774740578050
H          -0.36985019381831   -2.66113626414339   -1.95369563014099
O           2.11631018798598    1.03335023169252    0.74768831452303
H           2.96942407470223    1.04691199681764    1.18414951045373
O          -1.20123322356225   -1.47924164775672    1.82943786510922
H          -0.63006552539866   -2.17853303030465    1.50186845662971
H          -1.79414398085120   -1.27819029501707    1.06218031559340
O           1.24125743107692    2.39431385715315   -1.49908009324225
H           1.80457024023484    2.16844880522998   -2.24159123192955
H           1.68177278307346    2.06818797718908   -0.69578365972688
O           1.94649715705527   -1.43574843028226   -0.16407676681829
H           2.01753600705602    0.12996770071039    0.35195177746759
H           2.22691113505872   -2.21175791916130    0.32348392104300
H           1.07015029861433   -1.66721772351163   -0.55337550469830
N          -0.49853579500514    1.07812204454161    1.72172862329176
H          -0.66372293414594    1.63739707395483    2.55137745518203
H          -1.21874017657175    1.35472354620638    0.92494637052920
H           0.46545939290976    1.19876813062677    1.37489508853095
H          -0.68115935507785    0.05656043913878    1.90785369843267
