    26
        -50.46234602  Gyration_radius:  2.37970661911 Dipole_moment: 7.195
 S          -0.35278948319596   -0.88920961355384    0.34487773977848
O          -1.76709457664803   -0.64892649704192    0.24622984151131
O           0.14022786661095   -1.85469975752282   -0.63133821278117
O           0.41950776787339    0.44930217178732    0.03964170929796
O           0.09277822733194   -1.20523890594817    1.70597844929981
O          -1.49657319213087   -0.94795604557562   -2.55158549219155
H          -2.34914427714125   -1.02411041595001   -2.11417259870663
H          -0.87548155333113   -1.42168535660425   -1.96720671662050
O          -2.61573723983133    1.88243942455564   -0.09336489455437
H          -2.54889297226505    0.91982151851396    0.04619990747734
H          -2.24424585460204    2.26182145746449    0.71401005511266
O           2.62883026150472   -1.20779724746774   -0.93278621405774
H           2.58062037473068   -0.49322906508019   -1.57258773745899
H           1.71199399774361   -1.58857926064156   -0.89663509326611
O          -0.92060015607447    1.54962266902627    2.18933990672534
H          -0.35108775960810    1.25356080318452    1.46738725257262
H          -1.27734300429053    0.74442930827986    2.57153198805591
O          -0.71205859908776    1.50896912090941   -1.89797255393774
H          -0.00192765827046    0.93148893406444   -0.81057347118308
H          -1.03121056938394    0.69632401239622   -2.35778479915152
H          -1.49000299237844    1.85234344858897   -1.39163287979624
N           2.52891210985963   -0.54347708767527    1.60068089699578
H           2.58469144766763    0.45818029493242    1.76238815681494
H           3.15638011581290   -1.05170632703518    2.21613556963780
H           1.47429586571480   -0.86481141236427    1.74375935753176
H           2.71595186338711   -0.76687616124067    0.56947984289560
