    26
        -50.45612314  Gyration_radius:  2.4561274944 Dipole_moment: 8.946
 S          -0.78107706145798    0.17187806065147    1.95336819399905
O           0.30397966905467    1.01566122862734    1.41216439530610
O          -1.61317662476926    0.89736115568568    2.86305940404087
O          -1.66228060300063   -0.20829390220417    0.67361783251119
O          -0.25871607611356   -1.10291692291846    2.41104558844814
H           0.59305621674846   -1.97468412973807    1.46759252717273
H          -2.02807388056056    0.68839273079812    0.45472504218547
O           1.18102940228229   -2.49191199634590    0.83249607544231
H           1.47487893477525   -3.25780448523578    1.32771192073928
O           0.57069994673335   -0.12079482333854   -2.43319619353431
H           0.68230346895095   -0.36463552243875   -3.35270453531261
O          -2.09858322294635    2.31602567718712    0.57215494905631
H          -1.23586860785461    2.52273749829062    0.17302272303559
H          -1.95603578571857    2.22636364986864    1.52727649166594
O          -0.15040122845603    2.43740784994218   -1.44411619531575
H           0.03745902850705    1.55256784339194   -1.79052736954844
H          -0.84100834730422    2.80674778659235   -1.99783162546938
O          -0.69669162862156   -1.98486237842471   -1.13852025195388
H           0.01763831321613   -0.84254093525564   -2.01286344149059
H          -0.04398741120184   -2.40736798967666   -0.55664936235442
H          -1.24449219492798   -1.45061085548708   -0.53691278951051
N           1.98746649055692   -0.09099444831982   -0.10049662959352
H           1.26147763397446    0.44240666680119    0.56423955534178
H           2.91379658542269    0.30553608733142    0.00392795436220
H           1.94599084361570   -1.08290677146698    0.19877335275195
H           1.64061613909663   -0.00276106432392   -1.07135761197177
