    26
        -50.45730939  Gyration_radius:  2.49955067844 Dipole_moment: 4.628
 S          -2.06895887715813    0.63669196264826   -0.23146224439892
O          -1.90773021109202    0.08661080166747    1.11297809167913
O          -3.38977225424989    1.01441727517762   -0.59231887139293
O          -1.13611764073230    1.94464871341882   -0.22036612365940
O          -1.40143081126567   -0.23743118637646   -1.21923423380226
H          -1.03275433278256   -1.74488311867196   -0.66541676557439
H          -0.75048749977642    1.94183154060397    0.67456297987265
O           0.24426840525198    1.89618860523322    2.12053027880014
H          -0.42924522509085    2.05057421369710    2.78660382610114
O          -0.66878129239339   -2.61263925966792   -0.36299822847296
H          -1.38959025675928   -3.23831725089121   -0.44072637460796
O           1.64014164899667   -2.41005108445491   -1.81985641232167
H           1.43967397017787   -2.67941737598559   -2.71702000458711
H           0.85609668061634   -2.63955991046953   -1.28123070647344
O           1.58320024175686    2.66972633890314   -0.38864064445809
H           1.50707274886997    2.72240868695862    0.57105274165457
H           0.70837935011726    2.89869917137633   -0.72565494076571
O           0.38697846362021   -0.86075301970255    1.69145769809454
H           0.47872662109811    0.95868687997991    2.19780772545647
H          -0.55585749255587   -0.56388184134305    1.50750704209005
H           0.35890432191913   -1.81480416991742    1.57353988092268
N           1.13836970292165    0.01235196425056   -0.72880273215491
H           0.13269729528207    0.02036728266333   -1.07213408208745
H           1.65196193605318   -0.69746936937713   -1.27654567533586
H           1.53642302986569    0.97061050163354   -0.75553687721917
H           1.06783146729659   -0.32460634137966    0.26190465278676
