    26
        -50.45784395  Gyration_radius:  2.46068070282 Dipole_moment: 8.294
 S          -0.78929603217021    0.39926933181758   -1.98298379259062
O           0.17055004398170   -0.40774795386362   -2.74713124950760
O          -1.50476781348402    1.38831697593009   -2.71240243129826
O          -1.87128880881275   -0.62701571110225   -1.42996814733134
O          -0.11236613491950    0.90935155756322   -0.77960033874173
H           0.66650309918795    1.38356152303026    0.52874578139223
H          -1.47469587338589   -1.11211372883882   -0.68044584112255
O          -0.77433296649396   -1.84478330228678    0.71244279107381
H          -1.36454808020598   -2.52344817746547    1.04346429211217
O           1.13077058228828    1.62178896468396    1.36759286113323
H           1.18530053993448    2.57905673868973    1.36546509116040
O          -2.41443551129827    1.75813843947597    0.22083647500830
H          -1.59310107559222    1.59881816241983   -0.27989392368718
H          -3.11807584772850    1.62848815399463   -0.41748682244311
O           3.10699917204182   -0.05251244421467    0.67048661239400
H           3.43702042467806   -0.45139851311532    1.47729777506547
H           2.47477951119923    0.64618787347037    0.94879637836728
O          -1.21744060431811    0.25244413431825    2.13757581153306
H          -1.81601018845297    0.78389540586595    1.57298378987250
H          -0.92078113204243   -1.03655361507394    1.30553313477921
H          -0.38263414803239    0.74532806091766    2.14009015446587
N           1.45569261566800   -1.54332243724455   -0.88447257158244
H           1.91437484705369   -2.38166851230788   -1.22623084313133
H           0.97084799642676   -1.01330617090045   -1.73161222681962
H           0.69896108284591   -1.77840911398866   -0.22217740869363
H           2.14197431162298   -0.92236561178416   -0.39690535140494
