    26
        -50.45996870  Gyration_radius:  2.37869048329 Dipole_moment: 6.952
 S           0.23497474931601    0.78676592263574   -1.75819846020130
O           1.13172785630260    1.90239396202644   -1.56900732401508
O           0.26214486735229    0.11812975378315   -3.03248328338421
O           0.73560914698526   -0.33270909732959   -0.71603594936170
O          -1.13578977754729    1.09195068944857   -1.33084223993262
H          -1.44868536890969    1.12390723833992    0.12315679286054
H           1.39422875414462    0.06006925357397   -0.10896514966795
O          -1.65352629319441    1.04981104653327    1.11716262173301
H          -2.48443729449885    1.50938087725137    1.24676519902908
O           2.38174617871774    0.48322930202036    1.23096229316902
H           3.23691270016717    0.78045858419916    0.91551264501363
O           1.27882458731914   -2.07400806583353    1.42753308621737
H           1.67927269919034   -2.36678235710014    0.60451635263726
H           1.67423589380235   -1.20481924712733    1.60869792405339
O          -1.47730461560423   -1.53065918078353   -1.98638119414986
H          -2.23303601885463   -0.95990118023173   -2.15390553545845
H          -0.73128252356980   -1.03238806344679   -2.40298840085834
O           0.78960494234204    2.50160830366078    0.98717061280881
H          -0.09230562105782    2.15863451337570    1.18980022011580
H           1.82427101821963    1.31133385822329    1.31614705277603
H           0.88257010843511    2.46523599758040    0.00743464872191
N          -1.26658091914527   -1.58479491168759    0.67040808229972
H          -0.28336790721164   -1.80325507488113    0.98176819218701
H          -1.48673145387523   -0.60898791552201    0.98070208666019
H          -1.28697356552184   -1.58844017725336   -0.39909518967639
H          -1.92610215330399   -2.25616403141062    1.05016491651230
