    26
        -50.46708050  Gyration_radius:  2.46813296138 Dipole_moment: 4.696
 S           0.94131451664861   -0.01667514782612   -0.66855233129338
O           1.87586844787300   -1.03987010508942   -0.26662701583763
O           0.61909877576918   -0.02586658263954   -2.08875598135194
O          -0.44676998746419   -0.32846604328218    0.02288701080873
O           1.31733937400655    1.31565347749371   -0.20073635590160
O           2.48342674097541    0.46601460541493    2.01504563119511
H           2.14638523847616    0.96500463815189    1.24411323307859
H           2.98838473451028   -0.25181688493220    1.62182994048791
O          -2.86891170786469   -0.75492478327405   -1.15543330358868
H          -2.08707713329568   -0.73409447403645   -0.57376231772644
H          -2.90147351504073   -1.63762484789323   -1.52832531972330
O           1.11824975467014   -2.97879947146298    1.37091764159925
H           1.39943400440304   -2.34398108449834    0.67661905061916
H           1.87226275435747   -3.54742466932812    1.53314762462993
O          -0.88059521524252    2.68632725066955   -0.04895325199132
H          -1.26932992140508    2.38372083421930    0.77476948862845
H           0.02703393083985    2.28929350414031   -0.07645520817025
O           0.13595242945994   -0.70215739716261    2.44143175174669
H           0.37405052372374   -1.64401135398385    2.34684040431080
H           0.99708754529305   -0.22001523598938    2.49465940731319
H          -0.26369272776664   -0.46231280499826    1.02969693287406
N          -1.54046888252329    1.33511731633098   -2.22051969791481
H          -0.60584517662157    0.78761308577140   -2.27808704863822
H          -2.27188150565226    0.63214741327976   -1.99069721589077
H          -1.41966201122554    1.98954013398639   -1.39681724727379
H          -1.74018099689826    1.83760863693977   -3.07823582198675
