    26
        -50.46604984  Gyration_radius:  2.52109702598 Dipole_moment: 7.362
 S           0.12283827437116   -1.52313145528266    1.01431154995659
O           0.82403640174221   -1.47530029416582   -0.27337522780892
O           0.22414266731555   -2.80067614915249    1.65927939004540
O           0.87167903535686   -0.44378824682098    1.92131530176672
O          -1.23002814902478   -0.99320482854174    0.89613201269327
H          -1.34508908324514    0.50275059009272    1.52810442985099
H           1.74904767229461   -0.86058945567515    2.03085137531215
O          -2.05418837625779    1.29415296116037   -2.32348473713329
H          -3.00310518484053    1.34163987661165   -2.19641258944883
O          -1.17438987833069    1.43174203271837    1.82281009093406
H          -0.42247163137155    1.34124127629722    2.41588398672379
O           2.79441335172004   -2.23222525825347    1.67838873078774
H           1.97465552054219   -2.75128053848168    1.79474324153162
H           2.94353650965979   -2.21579057031251    0.72909194413009
O           1.74595327759227    0.80957163864916   -1.01433240642725
H           1.99184443399247    0.65799758606222   -1.92890221992110
H           1.42598223066843   -0.07099589018994   -0.67352586729905
O          -1.47171307778010   -1.18931334348585   -1.72620932895968
H          -1.82066930553557    0.33239835364171   -2.21163442258863
H          -0.54238419450728   -1.45246961873788   -1.73582492001279
H          -1.66321318364803   -1.16581290704039   -0.76827236055694
N          -0.38733591241127    2.31742082452544   -0.52945413751611
H           0.50957039954950    1.79299149360532   -0.72305859601155
H          -0.72423410728213    2.03584324427676    0.44391950145498
H          -0.23937325312905    3.31899442880353   -0.58726037435808
H          -1.09950443744365    1.99783424967287   -1.24308434713205
