    26
        -50.46060869  Gyration_radius:  2.58772688116 Dipole_moment: 5.780
 S           0.35270186437171   -0.41026429309992    0.43536107135639
O           0.93418204368642    0.05203086803483    1.67632391672595
O           1.01419436650674   -1.62626437074303   -0.07882514464835
O          -1.12522262221109   -0.82291386800872    0.69276883951199
O           0.34551841223442    0.60261447372856   -0.61370335201576
O           0.51886518453856    2.62972172144065    1.17723030040105
H           0.86642204710804    1.80471358972590    1.56211618908809
H           0.34845653979189    2.36946501538414    0.26255252385055
O          -1.06346225624444   -2.33947527614867   -1.64515734467946
H          -1.85912119091433   -2.16839344022558   -1.13529455232424
H          -0.33492022436779   -2.23436354039942   -1.00486958847574
O          -1.77498191131137    2.63224480175804    2.54321513636053
H          -0.96332190790867    2.74147688093271    1.99293249698862
H          -1.71441025089014    3.28570947951404    3.24156920271930
O          -0.17974816156041   -0.24096915889481   -3.03745122281548
H          -0.71119178996228   -1.02524518147580   -2.77665610822113
H          -0.13867084749403    0.29220509893260   -2.21000711052760
H           1.18015162153346   -0.79430833437894   -2.84269076696391
O          -1.35455099442275    0.03785898017051    3.06826324175993
H          -1.34980276244497   -0.53809181486060    1.63799582325501
H          -0.38563039109300    0.07195336314020    3.04420560877972
H          -1.65674313229931    0.96824940172340    2.95160449397910
N           2.08753390498854   -1.22599196584013   -2.37895091260282
H           1.74540578094683   -1.42257656429180   -1.36859356127880
H           2.84467503065519   -0.55079081376493   -2.36314287932591
H           2.37367164677662   -2.08859503233480   -2.83079631089779
