    26
        -50.46604963  Gyration_radius:  2.52077053479 Dipole_moment: 7.371
 S          -0.04700918379762    1.70187149781406   -0.68255817220223
O           0.12476373748559    0.57143440454619   -1.60213132879362
O           0.02829556314567    2.97420539434003   -1.34112870712388
O          -1.52277375623361    1.52570858232312   -0.10025247202714
O           0.80524092606244    1.55957198107421    0.49130934331962
H          -0.04599861111175    1.08546612599076    1.79461136629164
H          -2.06466008053551    1.69042567737998   -0.89690936226750
O          -0.69929197428541    0.66950546268065    2.41058807780130
H          -1.54390181159548    1.00836095131692    2.09897761540353
O           2.28098825914024   -2.12276802577703    1.25416267980329
H           2.89726557825938   -1.86998158362257    1.94340448579053
O          -1.05419300264344   -1.63059401649915   -0.98444749815833
H          -0.65681350581785   -0.74818616766848   -1.22374159206591
H          -0.67534845968460   -2.25956944907569   -1.60147223847766
O          -2.10077099980270    2.08939521439852   -2.61099431087929
H          -1.35487504400210    2.67733873653745   -2.38073769385511
H          -1.69771227896058    1.34628878041073   -3.06811300578456
O           2.50043720350951   -0.20053671291953   -0.51226336373865
H           2.11936010996910    0.53241026120380    0.00889222295530
H           2.42497503474134   -1.46786773767548    0.51757365487649
H           1.90979189131677   -0.22537110530563   -1.27682303372945
N          -0.33485857306176   -1.79870204956569    1.56760431064631
H          -0.68597303321619   -1.79160559383297    0.57074479662142
H          -0.50961219654563   -0.82913960177527    1.97978292162337
H          -0.80488222342526   -2.51454837149313    2.11085081852622
H           0.70755644108913   -1.97311263473481    1.53307048547140
