    26
        -50.44899038  Gyration_radius:  2.42277083189 Dipole_moment: 10.353
 S           0.85025092615180    0.75643002748817   -1.94573748322662
O           1.70844454995329    1.29577592106701   -0.89321743785225
O           1.23885201814941    1.04943383008600   -3.28119140519301
O           0.96637182858363   -0.86392288244623   -1.74706198614597
O          -0.56354191273807    1.01042720981267   -1.65668339576373
H          -1.73047432642192    0.50508610601691   -0.81214783693104
H           1.74828323978134   -0.95698750817934   -1.13813154805888
O           0.52556080216427   -1.17805086747952    2.01307911387988
H           0.60817761902375   -1.47008412788236    2.92148646219136
O          -2.47229854900916    0.07616502797318   -0.27828037354679
H          -3.27564417380727    0.24941618256330   -0.77056462882831
O           0.04918743313715    2.78365099649780    0.47375640756661
H           0.77049061916706    2.29588354354290    0.01644408748499
H          -0.59987530797990    2.93704280887966   -0.21742508846246
O           2.67076838643821   -0.85363939996881    0.19252556916834
H           2.62829190761201    0.10033270612083   -0.01926549452695
H           2.08744396396104   -0.97356363749549    0.95779230503834
O          -0.99345117680410    0.88642771423500    1.97784416136970
H          -1.71791641913237    0.66602786948763    1.37674221811186
H          -0.00088130448174   -0.31241002150814    2.04416816219312
H          -0.54788332496772    1.66212980910796    1.54984511759218
N          -0.80607538268892   -1.96749563561694   -0.14976175690175
H          -1.63916751520649   -1.32477927388929   -0.15982618290469
H          -0.14536694028182   -1.59203079732077   -0.89519483026836
H          -0.30477722007114   -1.84675994501678    0.76711979943715
H          -1.05476974053388   -2.93450564607578   -0.32631393542247
