    26
        -50.44592074  Gyration_radius:  2.58184445914 Dipole_moment: 6.938
 S           2.20182068586051    1.43722333530032   -0.11307319140764
O           1.48178075369814    1.70360679139455    1.11361272614743
O           3.10804433407548    2.43106721950568   -0.54944017063902
O           2.93778597156220    0.08935095933312    0.00168141257911
O           1.13142690920084    1.11732681782376   -1.20729233381172
H           0.32564725275258    1.68576507171311   -0.96893246706485
H           2.29266571242552   -0.64883519576722    0.23909792044334
O          -2.25944207590440    0.61751128494454    0.99770151442429
H          -2.86346726267202    0.93055614782370    1.67267051538194
O           1.30665806602084   -1.84333730283189    0.46971141741880
H           1.80796471580336   -2.66016557719812    0.45309554547862
O          -0.73473981430685    2.51062021642710   -0.20389684694735
H          -0.13188411176637    2.65731331306010    0.53944455204675
H          -1.40626287144355    1.87205393954844    0.11930316588665
O          -2.75106484670443   -1.29690019093880   -0.92609746629802
H          -3.32393719421680   -1.92934917752493   -0.49032487519040
H          -2.63136839619690   -0.55780656659209   -0.30397585142700
O          -0.08382252010802   -0.18198400556385    2.18031233603519
H           0.30547929655549   -0.95186534034619    1.74038232156804
H           0.51945019126457    0.55578932241921    1.96250591872946
H          -1.46081408596939    0.25630608658041    1.48137235941514
N           0.00340967174426   -1.58613512447787   -1.73158204846968
H          -1.00078203100273   -1.54606189514798   -1.55333596876107
H           0.16077738835349   -2.20605652439815   -2.51529335469296
H           0.30461532308507   -0.65351184287077   -1.99580846506786
H           0.76005892790661   -1.80248176222192   -0.41183867576000
