    26
        -50.45784392  Gyration_radius:  2.46081048933 Dipole_moment: 8.293
 S           2.15086468635082   -0.28981890060627   -0.07439310104014
O           2.24820987630941   -0.71253381375906   -1.47737316500031
O           3.35234311022014    0.17027737343376    0.53137696023944
O           1.01705139556123    0.64027111805977    0.05251186179631
O           1.70134395417461   -1.58283564579481    0.73528747178564
H           0.74893126893806   -1.72769116896354    0.57272452389076
H          -0.25571017433896    1.59855569186460    0.12629884636539
O          -0.95406927469460   -1.86320676619551    0.35507590297305
H          -1.26296113892907   -2.66932808541930    0.77136375778194
O          -1.08058288561008    2.13924446640917    0.18204448090214
H          -0.79410616641339    3.01410545706839    0.45009553843415
O           1.17732127064982    0.56185357749842    2.69590918381886
H           1.29246681021772    0.69499809829157    1.73680772471383
H           1.94162166013900    0.04887139180867    2.96423416596367
O          -1.66146992365971    1.38960813982350   -2.32754356036404
H          -2.61438895796819    1.30076515892978   -2.38235989343149
H          -1.47302966851131    1.78343627620709   -1.44742688484993
O          -1.40343853554763    0.03298241036763    2.03664274808761
H          -1.53099478655654    0.83017746994351    1.49989232231951
H          -1.17426945902092   -1.11512584577844    1.00196231910774
H          -0.53252165544082    0.16125000856182    2.46604089896174
N          -0.19687005484999   -0.88548096194131   -2.11171774255794
H           0.88567794244890   -0.75209506106183   -1.90226378029458
H          -0.66462993235026    0.03661075531322   -2.27051406684948
H          -0.31465524968161   -1.48847492612447   -2.91950848347661
H          -0.60213410118145   -1.31641621802696   -1.26516802929472
