    26
        -50.47014104  Gyration_radius:  2.40824074789 Dipole_moment: 4.175
 S          -0.22195198094215    0.01385176481669   -1.85123795544605
O           1.10974658026219   -0.50247128751376   -1.48580000874848
O          -1.04777984087154   -0.95110759562245   -2.50606075833660
O          -0.87210592416056    0.51709525103744   -0.61552946341956
O          -0.00387197950487    1.24114047131278   -2.77296250803816
H           0.83769239770881    1.66592144231896   -2.45786704886185
H          -1.71254796473137   -1.00020912602269   -0.37725038292388
O          -1.92637624058286   -1.90879013219958   -0.08789495662103
H          -2.11205654348176   -2.36326990170153   -0.91482724346216
O           0.63066079341829   -0.03404783727848    2.51146138509217
H          -0.34133599131087    0.09388119924284    2.55845143850375
O          -1.96727552588781    0.32381387836447    1.92053668543607
H          -1.71750558551350    0.56069885761107    1.01329211956945
H          -2.49483211330637   -0.47443785147359    1.83686098953643
O           2.22940332039972    1.91347061730027   -1.61830212514907
H           2.28757034205319    0.94560802910704   -1.57474060977340
H           1.94122632885653    2.18500151334491   -0.73017953357761
O           0.77673529366402    2.03428825689603    0.71018982712472
H           0.14516900880557    1.48000764273824    0.18286268960715
H           0.28115180218593    2.80594624156843    0.99094035369676
H           0.94583240538809    0.74785798053592    2.02289634333788
N           0.66067044029708   -1.88803608297165    0.66122968613254
H           0.96059971839688   -1.37130320071201   -0.22411896946337
H           1.23178532759793   -2.71072202478116    0.82014817561788
H           0.72363533922451   -1.19233966551629    1.47970389200608
H          -0.34423940810973   -2.13184843037078    0.50819799815520
