    26
        -50.46972958  Gyration_radius:  2.43060615329 Dipole_moment: 5.144
 S          -0.39590969946037   -1.42138080977326   -0.53817329231154
O          -0.59202059685203   -1.88443812798359   -1.88679217330112
O          -0.71734487144218    0.13209823564756   -0.60655155298366
O          -1.26322143379444   -1.99573470563532    0.46260254595529
O           1.02089091616359   -1.48005785538128   -0.12464528478808
O           0.26768487136196    0.09291566942493   -3.32281802668547
H          -0.04992532245417   -0.74248438765318   -2.88809418741639
H          -0.50234228168346    0.66494295202147   -3.33661099543542
O           0.64897146999242   -1.28682098470746    2.48026752064020
H           0.92692792718736   -1.46938421285852    1.55894772892164
H          -0.11230048731389   -1.85760205590360    2.61960489446008
O           1.08842252362849    2.58009917083128    0.21400417569831
H           0.64418507715833    2.11614734363651    0.94620226492812
H           0.41589201349071    3.13120470175146   -0.19061897896837
O          -2.75829678137002   -0.35901076846653    1.91276123282038
H          -2.26222624731472   -1.03390266173736    1.39837320897990
H          -3.66873263466083   -0.42455460088005    1.62389851987909
O          -0.45820139586449    1.00745554969377    1.83943751517271
H          -1.38230363253995    0.81720839234242    2.08079893898255
H           0.05024153568846    0.24633354837561    2.22423943241491
H          -0.65125642441716    0.48246192245888    0.32294623838540
N           1.97992796190112    0.55621522552346   -1.36398402562653
H           1.71380301726922   -0.32548120820061   -0.81314031401670
H           1.71249767872869    1.38708557418973   -0.78692467746858
H           2.96853411003046    0.56414436949663   -1.59130313894332
H           1.37610267657031    0.50253973380256   -2.23442756929840
