    26
        -50.46539881  Gyration_radius:  2.4346795564 Dipole_moment: 6.426
 S          -0.70451998365910    1.97534806618506   -1.05344385605408
O          -1.75389906707449    0.99692995839085   -0.77428135034972
O          -0.48614850382909    2.93234104193933   -0.01546794377779
O           0.53484742830511    1.28582268981514   -1.44216396205653
O          -1.19164544654526    2.74999246675930   -2.34832559781199
H          -1.54623161014762    2.05823010615994   -2.89863785524915
H           1.22721243446107    1.38672914675278    0.01988969332874
O          -0.68380318415546   -1.94585841297485    1.71264995430965
H          -1.06988836798316   -2.35107125315178    2.48941146239601
O           1.55702498483732    1.34429242497864    0.95111939335047
H           1.59636102458377    2.26267775777650    1.22742801585070
O          -1.46075999040059   -1.65878707500928   -1.04038032683873
H          -1.68144935350669   -0.70600212069176   -0.99915110326309
H          -1.39309693155795   -1.94783074252279   -0.12068423566731
O           1.03644388152252   -1.27645545274938   -1.75150374252589
H           0.09839819510452   -1.58490103118026   -1.65289864797602
H           0.94473470153566   -0.30020726148124   -1.82251916338400
O          -1.05393475578698    0.60967397237094    1.74592280335831
H          -1.48876638550715    0.83479347695199    0.89873606730664
H          -0.89778439993654   -0.96521765099040    1.76991152204836
H          -0.19298305561480    1.05204658539152    1.69647685205313
N           1.74679929934098   -1.36378652375025    0.70657393895735
H           1.52212506062524   -1.38394675597949   -0.38430347569789
H           1.86075985687525   -0.36968654454549    0.96225024555536
H           0.90268504246194   -1.73655656121847    1.19161009579164
H           2.57751910605803   -1.89857032723714    0.93178122635395
