    26
        -50.45745698  Gyration_radius:  2.39273864493 Dipole_moment: 7.913
 S          -1.70064001392464   -0.05726115990335   -0.87923497255269
O          -0.94710628727652   -0.30609481290767    0.35823972962448
O          -2.73994381966420    0.91063807289381   -0.71197379845516
O          -0.58009340288582    0.58590738999596   -1.85779061620691
O          -2.04321153258090   -1.30029701410842   -1.53488551570956
H          -1.13908216521266   -2.43033482418923   -0.88680394604677
H          -0.21188057153929    1.38951869725180   -1.38153492906027
O          -0.41720741729470   -3.08150945087791   -0.65582909339700
H          -0.55400451213232   -3.83158558999813   -1.23791292602887
O           2.27514546184508    0.40727107127618    0.83103416618920
H           3.13388790832068    0.36419790054892    1.25369616682265
O          -1.38744899545438    2.05966238450166    1.42791058311325
H          -2.21104932472458    2.41618136248148    1.08464697993929
H          -1.36425276843483    1.14879964521358    1.05992413773887
O           0.56630416993974    2.36889382193890   -0.37934101457437
H          -0.10792278381871    2.47072288100250    0.32865544107363
H           1.27807513005526    1.84366059832310    0.01403464252570
O           0.41833731573258    0.01986129224009    2.60846864936926
H          -0.01649201166106    0.85038088434763    2.83104392053913
H          -0.16176373794864   -0.38037856167718    1.93453407766295
H           1.59767418196427    0.27270250221277    1.55896838642496
N           1.29130706485831   -1.15591826404121   -1.15981717941290
H           0.57742184975571   -0.49309101671332   -1.56544435285709
H           1.71535267198925   -0.66405630065392   -0.33890795813949
H           0.72957358529744   -2.00970453602555   -0.85517532023347
H           1.99902000487191   -1.39816697314364   -1.84650525828611
