    26
        -50.46060889  Gyration_radius:  2.58602078661 Dipole_moment: 5.757
 S          -0.41600237959207   -0.49201147681405   -0.27671089138175
O          -1.77901465124778   -0.24104439444511   -0.68985913315500
O           0.18261040340949   -1.64644652373190   -0.97626625920040
O           0.45989686024348    0.66284969636192   -0.43813975432428
O          -0.40723150412236   -0.87506329572115    1.23122342498844
O          -1.61627214202909    2.40089432581619   -0.43859739819948
H          -0.65942083550551    2.27565586891014   -0.38715174206461
H          -1.92294870949765    1.51411978618446   -0.70105585536442
O           2.09849485183984   -2.04433089867561    0.88076175111794
H           1.67861608582471   -1.91970544202745    1.73542308787364
H           1.35901217246947   -2.06153907133752    0.24457268995870
O          -2.62974483049924    2.33162108698578    2.02990715850688
H          -2.22295622850513    2.47447610118836    1.14229915346252
H          -3.41733186643999    2.87708253332327    2.05396642095659
O          -2.82423649427080   -0.32903137350363    1.77528026038076
H          -2.94024266323417   -0.34267329632857    0.81255653613605
H          -1.34201682659600   -0.70738076784319    1.58208317730507
H          -2.80183331053411    0.62320352886493    2.02702937774175
O           3.03011285380320    0.20155504633228   -0.21990671178377
H           2.13456955778901    0.60726619354973   -0.15946492888472
H           2.96059303110411   -0.59214169243051    0.35530289322757
H           2.74293139349167   -0.42427068884094   -1.53198073472874
N           2.23280291688057   -0.95120480431367   -2.36030785012168
H           2.76720296006109   -1.74696837662476   -2.69387678005660
H           2.01391433991602   -0.31222477508944   -3.11737948648918
H           1.31849503526334   -1.28268728977597   -1.87970840589964
