    26
        -50.45842469  Gyration_radius:  2.57964038978 Dipole_moment: 4.648
 S          -0.28572278996438   -2.50959288443697    0.00194730996948
O           0.23181510867438   -1.91509214995719   -1.21574871963451
O           0.75809594479354   -2.97286058574392    0.89067566106791
O          -1.26863388955418   -1.65397727023783    0.65056812399008
O          -1.09948901196682   -3.81496835340851   -0.43413788265423
H          -0.40877446885245   -4.46282625535248   -0.53446105937482
H          -1.99247430276421   -0.44793133746898    0.01808924011117
O          -2.38387839423382    0.44320366675078   -0.23315076095533
H          -3.33389966749725    0.34192779228266   -0.16388617076947
O           1.77646578690386    1.20418285892270   -1.13598831083754
H           2.44856167433452    1.13601249404543   -1.81467539120040
O           1.15354112574635    3.15075233085397    0.57700947894225
H           1.94381395660662    3.29392106439186    1.10066313153420
H           1.41837449512986    2.53697253423948   -0.14597709440688
O           1.42653188184883   -0.44975302401216    1.11701560227760
H           1.22837250603358   -1.41130094889327    1.06390852538066
H           1.69427057226028   -0.16179763078611    0.22902308793491
O          -0.43374802686665    0.40266986503571   -2.23340749813594
H           0.91613395455547    0.95324277343170   -1.58517947658546
H          -0.22452027884764   -0.52943362566592   -1.99389837834885
H          -1.21917199650409    0.61762453445077   -1.71181906994646
N          -0.48944349527158    1.26528484882421    1.52829445784402
H          -0.81297852220157    1.31697033413340    2.48754048212888
H          -1.28735967844397    1.08302882897956    0.88336588999311
H           0.02988214608059    2.13055654398342    1.23734750909603
H           0.21423536999993    0.45318359564032    1.41688132257836
