    26
        -50.44252373  Gyration_radius:  2.50282892232 Dipole_moment: 6.754
 S          -0.40528644684504   -0.99943852100636   -2.32312932433336
O           0.89877352874291   -0.42803599147354   -2.15250470957711
O          -0.57360555812988   -2.02062859785827   -3.28797121859256
O          -0.87127096221908   -1.52853020021136   -0.90489638145435
O          -1.43829521070206    0.11948859650173   -2.55651174604471
H          -1.23269888630768    0.84582225974227   -1.89088485908579
H          -0.09067675122858   -1.67346048086956   -0.30673544785377
O          -0.43402485508471   -0.27757346934501    2.55640504867959
H          -0.83027840109883   -0.55270304736111    3.38427475615939
O          -0.98377914164597    1.95138489388665   -0.81814127272871
H          -0.87130675809144    2.77496304985552   -1.29459988064496
O           0.91640751797834   -1.92860382336541    0.95529696162411
H           0.78285640022218   -2.81593544560554    1.29403468760873
H           0.50941958939477   -1.30568668184281    1.60555693829261
O           2.82191983519709   -0.15147243637746   -0.26415071958890
H           2.51800071589503   -0.91723710195370    0.23520152001240
H           2.33552432423419   -0.20089430061340   -1.10257773376186
O          -2.33565371044815    0.14306347230925    0.78062650516155
H          -2.11387973962616    0.96218480802181    0.31362578990688
H          -1.18866340292161   -0.07825500624144    1.93966962039385
H          -2.13252451875953   -0.56447358578607    0.15196728438043
N           1.00870380599879    1.74358400165683    0.79650574478399
H           1.42699696090675    2.62139117091863    1.07586857052977
H          -0.14571168301994    1.85136017437828   -0.20411526835181
H           1.74591310689939    1.15959636033112    0.38484635344767
H           0.68314026065404    1.27008989230479    1.63233879104024
