    26
        -50.45220455  Gyration_radius:  2.46102081208 Dipole_moment: 9.117
 S          -2.09936766828539   -0.08558723419355   -0.71398601650116
O          -1.35701051856417   -0.97128635074286   -1.62883838717154
O          -3.50977783191297   -0.09398593326727   -0.88300985999160
O          -1.74422086586437   -0.65948337441955    0.74039903903736
O          -1.49074353358983    1.25099506595244   -0.71190898600379
H          -0.20641050334087    1.77790618116052   -1.49644292158655
H          -1.32718237591700   -1.53001250334745    0.57930655647670
O           0.65924931125834    2.00453355407120   -1.93564643010243
H           0.42692742695849    2.34919368842138   -2.79875564768904
O           1.84440753376614   -1.03805881360085    1.16232958498248
H           2.68768834155026   -1.00073252964660    1.61447136466863
O          -0.20171136275201   -2.83045705566974    0.73164211551208
H           0.61419250801218   -2.34417194031966    0.94465644218704
H          -0.44159899612724   -3.33247161121080    1.51254754579515
O          -0.05688112696719    2.69466259106602    1.02379409967300
H           0.60205124990193    2.98649195933401    0.38930583949742
H          -0.75378239134965    2.26627278097379    0.48761079198142
O           0.15818256991474    0.42966085269289    2.41506815161197
H          -0.67744301473141    0.07732973499191    2.06803558571310
H           1.21802550617982   -0.43577945066341    1.68545169720206
H           0.18485090494132    1.35071134980937    2.07411596985553
N           1.12915787476009   -0.58073639419569   -1.45176087568154
H           0.04157732840970   -0.81836601000910   -1.51542456698756
H           1.64270008601146   -1.15647235574166   -2.10949493034015
H           1.18956888509645    0.43310500404344   -1.69727871583270
H           1.46755068220665   -0.74326121547134   -0.48618744618864
