    26
        -50.45285044  Gyration_radius:  2.52790384447 Dipole_moment: 7.273
 S          -0.54454273156047    1.24102355340141    2.02871417104656
O          -1.53314444618638    1.51255545309249    0.96284415782616
O          -1.05507797654781    1.38298223807561    3.34750295601905
O           0.07136028495623   -0.07888919248550    1.76786591701670
O           0.60348615401229    2.29074513886901    1.80934278138377
H           0.86569204955492    2.17008607231799    0.87877118069145
H          -0.63307759241065   -1.38118654587191    1.30744383153994
O          -1.08260958374794   -2.17638422235349    0.89070306046454
H          -1.54663407997917   -2.61452275385426    1.60483846112831
O           1.55912940319187    1.80654054597371   -0.68806258647822
H           2.34336964490178    2.34553415152996   -0.80382550022658
O           0.94406135236220   -2.62098947989990   -0.90331101709255
H           1.42620500847850   -3.43723575452323   -0.76434897177693
H           0.21958672507539   -2.60803114825325   -0.25344038585412
O          -0.14717951404356    1.02553688245875   -2.61635479766619
H          -0.55510946936382    1.83008962335062   -2.94105070737266
H           0.53186428832091    1.31065171086831   -1.96797139319977
O           2.19991388253280   -0.47634403679262    0.26884310560739
H           1.88658644621823    0.90097094472084   -0.37127804119303
H           1.52581763854564   -0.37880424445105    0.97691620707018
H           1.87036796238186   -1.20554061553869   -0.28930173175763
N          -1.80161834618911   -0.19245869234391   -0.87557710309868
H          -1.55548416584861   -1.10252331459242   -0.45972807549137
H          -1.13952220078488    0.09560768604505   -1.63191780243628
H          -2.75549764439283   -0.20225262850825   -1.21898749216893
H          -1.69794306945334    0.56283860894660   -0.05863020383383
