    26
        -50.47460304  Gyration_radius:  2.41932972607 Dipole_moment: 1.185
 S          -1.60460948926864   -0.42598422484290   -1.09846802788984
O          -1.97453059815810   -0.37189181724271    0.31470735626443
O          -0.97081257076095    0.78724376454623   -1.55403682949511
O          -0.84396439137026   -1.62692892636805   -1.40457370478611
O          -2.96197413079947   -0.55341729711173   -1.90214770481029
H          -3.22476528848016   -1.44455045584030   -1.69864696297764
H           0.58702766866441   -1.07617725729513   -2.01263828275530
O           1.33650535368101   -0.51316534189100   -2.31220276934521
H           0.89435923153316    0.24538548694927   -2.70774448405627
O          -0.81712871048603    1.23919390728998    2.02281611616167
H          -1.28517890296611    0.66273524661926    1.36979571983410
O           0.40728512683836    2.51944723173016   -0.07223263587342
H          -0.16442614060039    2.05153127918788   -0.71498734896444
H          -0.01051457059047    2.34543363004373    0.78756802856858
O           1.31383084400565   -0.53063160599623    2.07473900493645
H           0.79257831637134   -1.33149217568625    1.83549170500373
H           0.64151671825117    0.13777936232400    2.29139050726351
O          -0.40963390419876   -2.35720768694915    1.18227982294367
H          -1.10487587697267   -1.69254502104238    1.01975631346591
H          -0.19763613950660   -2.67316831091608    0.29731791376863
H          -1.45894512577035    1.43954327362708    2.70549856593045
N           2.24142271311420    0.63126139610013   -0.08683021352633
H           1.96908987391124    0.07690948268884    0.78548568466225
H           1.62880223506579    1.50415464326284   -0.08617626112066
H           3.22726122672183    0.86645948552357   -0.07632928831152
H           1.98931653180483    0.09008193132507   -0.95983225489262
