    26
        -50.44547070  Gyration_radius:  2.46744124266 Dipole_moment: 5.726
 S           0.33193599540356    0.99979669123442   -1.98377513158147
O           1.60213052249505    0.69312478795680   -1.36555700645235
O           0.09886499351546    0.41799310450776   -3.25764435449975
O          -0.79855891624215    0.56690328370629   -1.00340032757413
O           0.13151350229014    2.52486426144278   -2.00073976213803
H           0.36055600508890    2.79308435224508   -1.06180816320789
H          -0.91435862683875   -0.43752122196480   -1.09993059060060
O          -0.84308530855047   -1.94841865132392   -1.37182396207932
H          -0.80720561703840   -1.99591778092583   -2.33086929362980
O          -0.42308700556699    0.80496134898696    2.04690729786249
H          -0.74508831353646    1.06068900359883    2.91299033456443
O           1.71467562451906   -0.90414656297761    1.90933316572645
H           0.95090993618538   -0.29969253707598    1.97222785722026
H           2.49965033338421   -0.35364529079784    1.91024138147440
O           0.94929707200106    2.57029631478725    0.43595968727545
H           0.34841249203794    2.05309986333123    1.00494189837547
H           1.55762685349637    1.91807226596585    0.05625468214802
O           1.61834490882192   -1.90955700896474   -0.61364401972193
H           0.10344551598124   -2.09304061957356   -1.05719944524330
H           1.81941297414310   -1.04031476623192   -1.00163728013220
H           1.66389673894386   -1.76064670945357    0.35250554194545
N          -2.34219823982785   -0.81944452318901    1.11621376572076
H          -2.86631833042380   -0.26164412857753    0.45319059081457
H          -2.99791796626508   -1.25669679577390    1.75226307021150
H          -1.88371163855009   -1.55319452795895    0.58744847227042
H          -1.12914352545254    0.23099583702766    1.63755159123602
