    26
        -50.44620156  Gyration_radius:  2.53602029469 Dipole_moment: 5.815
 S          -1.02355563207605    0.26816336505485   -2.26754343359662
O          -1.82368630444274   -0.53768668666432   -1.37574469529722
O          -1.69642103181858    0.91024746952559   -3.33251195140753
O          -0.25399380997436    1.30499210132996   -1.37568548059614
O           0.13764418786247   -0.57192732025350   -2.83113625978021
H           0.71494554243163   -0.94486735631422   -2.09526205471688
H          -0.86977256192351    1.48105580434174   -0.58896166659377
O           1.78108301272923   -1.40810837975595   -1.02466975686469
H           2.53241974176879   -1.75321563889983   -1.51149232677007
O          -0.74780983820799   -0.06913996520745    2.44569687466770
H          -1.11891916462629   -0.39774686707442    3.26500799999426
O          -1.94985100410378    1.37656082685295    0.50825630744770
H          -1.55507761911974    0.94307194607096    1.29539540809779
H          -2.39063479712721    0.66716418814268    0.01697769408288
O           1.35189251753985    1.63012305232309    2.08534488663769
H           0.65718022841231    0.97657954769964    2.28777142509863
H           0.91975238715985    2.48593350484745    2.06828151080943
O           2.32862165775494    1.02647480399888   -0.35481730094140
H           1.60223278921656    1.41942674282221   -0.85694409693812
H           2.12787648871886    1.22272773860730    0.58493993870862
H           2.06316694825761   -0.50134387624060   -0.69106469429745
N          -0.55105857321007   -2.00768019434754    0.71137457504518
H           0.39461753587944   -2.07324606980976    0.34911534682775
H          -1.12209980752495   -1.63412583986967   -0.04800753800239
H          -0.87452411632021   -2.94609529579385    0.90868936825002
H          -0.63402877723926   -0.86733762139369    1.82698993014681
