    26
        -50.44342479  Gyration_radius:  2.53301128103 Dipole_moment: 5.424
 S          -1.75880618426200    1.66039326250107    0.23487123504363
O          -1.76362115737353    1.12063524566096    1.56855876057639
O          -2.40414091972618    2.90023729523439    0.02125742919729
O          -0.27168193944732    1.73973150714433   -0.22412661131404
O          -2.36570683643840    0.60073703095726   -0.73303778605508
H          -1.66024650526192   -0.01499032620940   -1.09071341814109
H           0.23204287061711    1.11183874810514    0.38630737938530
O           1.03809046616045    0.18549354582628    1.33758848874211
H           1.08307563525155    0.62501266645994    2.18823789029720
O          -0.59546293082582   -1.05725288326049   -1.62494993670373
H          -1.00329170585980   -1.68473222911938   -2.22441469582817
O           1.53147589202025    0.70608895936469   -2.16923699936868
H           1.06598364702367    1.47299810604573   -1.82003114505591
H           0.88363301029549   -0.01241734999562   -2.11991559553960
O          -2.64361031157854   -1.38422422896547    1.50531747733098
H          -2.35671405621523   -0.46501018855053    1.68325121447584
H          -3.37315891794326   -1.31138987805853    0.88724285079424
O          -0.23191320787526   -2.16631659576945    0.65035044565370
H           0.30002840894988   -1.47394902360929    1.07358755976772
H          -1.12953736836954   -2.06774622726362    1.03762037467273
H          -0.39325152592445   -1.56427780816813   -0.76818956370525
N           3.27924288972271    0.21613658296767    0.02354414300246
H           1.96530453375520    0.19251580836127    0.90873871429782
H           3.95282378365709    0.95448513686591    0.18119713940140
H           3.77978821270982   -0.66193277073941   -0.02439285087541
H           2.83965417689946    0.37793565418263   -0.88866249009766
