    26
        -50.43776709  Gyration_radius:  2.52852580871 Dipole_moment: 6.072
 S           1.66401344632354   -1.64901130407644   -0.58549800497564
O           2.52822916588039   -0.54290353905314   -0.28869886247786
O           1.96645594954555   -2.88938065078171    0.03912746211820
O           0.19237299553233   -1.22785792577418   -0.21023207859070
O           1.50317281292299   -1.82131498515207   -2.10341665257711
H           1.04552898548525   -0.97816273589213   -2.39967631495853
H           0.12615278000232   -1.06749412683004    0.76592240368164
O           0.02775348633865    2.22605348677894   -0.66865162277051
H           0.34990391724093    3.09729917216578   -0.90193213149168
O          -2.57314675146024   -1.09565150244909    1.07953132873004
H          -2.45244506093185   -1.90456656601668    0.57757012474745
O          -0.26637370378784   -0.94275656713999    2.35417345909909
H          -0.09271316909361   -1.79383107592830    2.76184003805415
H          -1.21837108353513   -0.94041955202886    2.08198041951710
O           0.13009267366597    0.29911974048613   -2.60407930791894
H           0.30427683415991    0.99550676839925   -1.93932651169036
H          -0.75471878997900   -0.01747088453705   -2.39103047379255
O          -2.30744692120676    0.83070048705046   -0.82496488548789
H          -3.02363118355561    1.46727806852577   -0.84719927826485
H          -1.48581963569040    1.34136411564502   -0.69413689663779
H          -2.49237739176965   -0.37569998695837    0.42001851098005
N           1.41083039417012    1.41551010364847    1.39067956944464
H           0.54605710484264    1.93639159884360    0.15276602823297
H           1.98821537462296    0.75461812248928    0.86661605709889
H           2.02805843221396    2.01151777834951    1.92710414974410
H           0.85592934797764    0.87116194033549    2.04151348012399
