    26
        -50.45891828  Gyration_radius:  2.53351550779 Dipole_moment: 5.759
 S          -1.65803690972514   -0.08006057532556   -0.52427978257064
O          -0.76643081120899   -0.26436761528969    0.62501005032652
O          -2.75998726500898    0.80058574612206   -0.24504998208876
O          -0.71568728197826    0.66697217853480   -1.59644620159106
O          -1.98359367384075   -1.34410098936706   -1.14403886924444
H          -0.91743827145862   -2.48196936042781   -0.86727815167362
H          -0.87244035354058    1.64039702388173   -1.41848153800123
O          -0.13530394231666   -3.10257391208668   -0.88471573643344
H          -0.35252795485767   -3.76523273611442   -1.54326835802499
O           3.01200793622709   -0.51071710768754    0.73961767824036
H           3.44698988905236   -1.28378635072136    1.10388412265430
O          -0.83077254592674    2.12728294038941    1.70306347486147
H          -1.67222938791400    2.23667663167310    2.15039465052997
H          -0.87029540993522    1.23016820840783    1.29674447281185
O          -1.40890836115138    3.00340274305478   -0.79840746438970
H          -1.01604760827359    3.00388487008949    0.09604908067758
H          -2.25801593530671    2.54267587515788   -0.67852703948178
O           1.14849129582395    0.06842926819564    2.47476337144390
H           0.92792804418507    0.99938660300865    2.58968307545275
H           0.42372545172692   -0.28338407909852    1.92725901288704
H           2.37415682888449   -0.20971484040275    1.44409115170719
N           1.39227655988494   -0.99649809792922   -1.30156661171367
H           0.64244756265947   -0.27466324882787   -1.35600660580888
H           2.04409062193962   -0.78483020300665   -0.48702065134980
H           0.89453578814550   -1.92065631589228   -1.13087495774105
H           1.91106574390036   -1.01730665628680   -2.17459818145074
