    26
        -50.45844614  Gyration_radius:  2.42712082202 Dipole_moment: 7.636
 S           1.67616784409452    0.92736247329612    0.58941378518946
O           1.10140906795667    0.98432969016037    1.95319706175474
O           3.05677681048680    0.56916412558874    0.56382447979313
O           0.82152914526308    0.08852550665016   -0.24863801197167
O           1.49399020204916    2.38063036473033   -0.01100560881015
H           0.56663537804939    2.38491836008195   -0.30279357723804
H           0.53336730142420   -1.06698062645056   -1.26634310565609
O           0.16861004516667   -1.75798775940748   -1.87722560221380
H           0.91702276182415   -2.09244382296714   -2.37332362885975
O          -1.16728635009779    2.12483564234839   -0.78082329327625
H          -1.46533740511160    2.93840778596046   -1.19224227122965
O           1.69053364300637   -1.64516613919925    1.89287283809119
H           1.51795009640454   -0.73768819667332    2.19347997218162
H           2.46482563947089   -1.55201783654272    1.33041393651983
O          -0.76723436631557   -2.13884369666079    0.80466111112916
H          -0.58103128387201   -2.20114011266529   -0.14331646253030
H           0.11417673228592   -2.12466761202120    1.23595129140965
O          -1.46004048314576    0.26434963660094   -2.66845970628929
H          -0.83624642709722   -0.46652210056070   -2.47586148659213
H          -2.33013037377845   -0.13683165859946   -2.70688104029772
H          -1.15772602457041    1.44167060316916   -1.49700809005161
N          -1.31544548376703    0.36751688664729    1.40500838553816
H          -2.02280627130548    0.47873464402388    2.12312411955871
H          -1.19512252358891   -0.65723497812712    1.11083405187941
H          -1.49364817885787    0.96390000899319    0.58775858186714
H          -0.33093948597816    0.66317882161975    1.75338228010495
