    26
        -50.45156903  Gyration_radius:  2.50377170622 Dipole_moment: 10.541
 S           2.43974733686567    0.02368393293126    0.35640328999307
O           2.07027148812039    0.57130343221559   -0.95078189143325
O           3.69445118079306    0.46112770211841    0.86097733751578
O           1.27975566754415    0.58680508884614    1.35536311211213
O           2.20164956244684   -1.41729895180467    0.41942278871394
H           1.02781477143887   -2.12756012028995   -0.18312143246888
H           1.14147681001909    1.51528836367795    1.01974731867201
O          -1.51989677587578    1.69597215931533   -1.04350616013112
H          -1.86471292803287    2.19404766611192   -1.78588169204847
O           0.14913802613771   -2.57755221547723   -0.44043812265593
H           0.36144905225113   -3.50458225155045   -0.55484841675743
O           0.87960025716647    2.71611224674145   -0.01440105337797
H           1.46285123724348    2.20885334448840   -0.61158860670692
H          -0.02496524359571    2.55060522889271   -0.33044967603289
O          -2.91117089866128    0.25951023105019    0.70548165797003
H          -2.46147729450495    0.91406668573225    0.12188251122322
H          -3.55746561288935   -0.19072145477020    0.15887816790536
O          -0.14816607190981   -0.27994198842946   -1.98943173687608
H          -1.01088140472245    0.92491809377942   -1.43816333487499
H           0.75338549174348    0.02384944082849   -1.71157513516327
H          -0.21911025615403   -1.17833792296873   -1.63943204139604
N          -0.76422110781255   -1.08393388205981    1.55546519855927
H          -0.54338948027524   -1.81839310667662    0.83595815093251
H          -1.64802670604193   -0.57343010309554    1.29145203256999
H          -0.83706067983792   -1.48985780278476    2.48262899348751
H           0.04895357854845   -0.40453379682099    1.52995874026085
