    26
        -50.44936908  Gyration_radius:  2.77229209713 Dipole_moment: 7.577
 S           1.63686677488356   -2.28297419150168   -1.42534317123579
O           2.51990169649783   -1.18611534894084   -1.02291578259713
O           2.28874252321858   -3.50276561195899   -1.77604096294026
O           0.82263063826389   -2.64717512644795   -0.04381834699496
O           0.60224229621828   -1.81868254604305   -2.33223532661624
H          -0.24435563545041   -0.50947196908410   -2.33186040764783
H           1.07550235504457   -3.56167041704067    0.02819105261617
O          -0.69561612611693    0.38268844793713   -2.29462879776133
H          -0.77037316334010    0.67147818752478   -3.20463379722121
O          -0.51040558306886   -0.76472169643781    1.47198157218903
H          -0.17264438984667   -1.57743499757474    1.06689952468027
O          -0.90673205409206    2.68761535410031    0.75502852848720
H          -0.61870115438010    2.33153482347818    1.62069426958287
H          -1.33975982750375    3.52286078631006    0.93270599513278
O          -0.18355673984081    1.42717492603362    3.04729735102697
H          -0.23484786026290    0.53053050022786    2.67100271924024
H          -0.72540323094341    1.41786651937651    3.83755777876996
O          -2.30524205417963    0.42068116581444   -0.05173113433575
H          -1.32046227147588   -0.50174257094130    0.96459050055878
H          -1.98310844216058    1.30884023842455    0.18152954573296
H          -1.97723624504817    0.27053800121553   -0.95185597443004
N           1.01704177496312    0.70562997526408   -0.22132749040419
H           1.73506059955509   -0.03777791966227   -0.56453163827783
H           0.35739073038281    0.87942454614920   -1.00381822396992
H           0.48209448058155    0.26387210269717    0.56217597146933
H           1.45097088800195    1.56979680141628    0.08508625487348
