    26
        -50.44865845  Gyration_radius:  2.47485840944 Dipole_moment: 5.853
 S          -1.90881355239423    0.27366220947006   -0.74635121636398
O          -1.98318438087954    1.05395709017706    0.46923276498008
O          -3.10883771285382   -0.36837328892482   -1.14510708679375
O          -1.36935831526844    1.16678346301054   -1.88154935804369
O          -0.77010477208134   -0.76627773212321   -0.60320889859893
H          -0.45009793963271   -0.90268117792158    0.37284273568916
H          -0.49670524363220    1.51232275350578   -1.53269558639187
O          -0.00456966084402   -1.10204456612621    1.77638558832672
H          -0.89229635406127   -1.27893259178860    2.13612998496767
O           0.90357060922911    1.92982685156543   -0.90455634326943
H           1.20471568884557    2.73078322447419   -1.33800976784980
O          -2.72554563574456   -1.17177098618391    1.77137174263317
H          -3.27696854147048   -1.61286812191597    1.12155538989147
H          -2.68227829437904   -0.24635902060397    1.48434744258113
O           1.64003287006920   -2.28389716750053   -0.26474553175399
H           0.81911360124803   -2.30795706415913   -0.76524440443221
H           1.37760085780614   -2.10811525023144    0.64700029005821
O           0.28531724838093    1.51168982200212    1.82187833108539
H           0.20977218695078   -0.15643560862877    1.99166287756638
H           0.78185536955835    1.75112143646931    1.02765096288460
H          -0.64317470258112    1.57087674052676    1.53682962184413
N           2.69830120883780    0.11191117706711   -1.42173681546718
H           2.37643931396955   -0.75872542319302   -0.98659519858200
H           2.81265278624891   -0.07171043696950   -2.41089064470304
H           1.59090063477945    1.20186771314933   -1.11845414047732
H           3.61166273988095    0.32134597487993   -1.03774273980938
