    26
        -50.44865785  Gyration_radius:  2.47422455074 Dipole_moment: 5.862
 S          -0.50773674564110    1.96660138433348    0.38855790116903
O          -1.54489080467151    1.27417699519500    1.12126613228295
O          -0.87845960420981    3.20968819511859   -0.18486133192749
O           0.72180434717967    2.13696693301641    1.30322424326954
O           0.04848683449468    1.02069604868249   -0.70418641616659
H          -0.55631056580410    0.20081302624592   -0.89407372345265
H           0.94472698480165    1.20570224940254    1.59585031227180
O           1.24745222023400   -0.32089059465288    1.92459132770188
H           1.77159246067790   -0.36076657114340    2.72697148057196
O          -1.43588054075763   -0.96410601737074   -1.17021845320904
H          -2.24344246148278   -0.44146383830477   -1.32339190295383
O          -3.01274701975410    1.25455075491209   -1.12551362228635
H          -2.79285602111655    2.10445528853613   -1.51320844338508
H          -2.76802213358649    1.33009848295965   -0.19013193918764
O           1.18786550236664   -1.03557487778969   -2.34564347903991
H           0.29300537584348   -1.36412036836887   -2.19616405900842
H           1.11594145455290   -0.07712305898042   -2.31069687934056
O          -1.32575378537894   -1.37989143367281    1.42455431173497
H          -0.39298814131872   -1.33556666671924    1.67479093677199
H          -1.63502455913905   -0.46386915221494    1.53518940060911
H          -1.49405437468980   -1.31903626715042   -0.24442225109674
N           2.71985334722153   -1.37516554045976    0.04985162066178
H           2.92805657204675   -2.35456086216657    0.20173350952806
H           2.18796284136491   -1.30825981161708   -0.82400235444274
H           1.82435887329001   -0.71267619652307    1.17513079988746
H           3.59705993320275   -0.89067810115542   -0.09519710094310
