    26
        -50.46812759  Gyration_radius:  2.40066174288 Dipole_moment: 4.911
 S           0.01681401772343   -0.83307057930580   -1.26516047367279
O          -0.00192929152586    0.01786999687665   -2.42435545014165
O          -0.54779774094577   -2.14963167857596   -1.43829381822043
O           1.35195761433416   -0.90017550761496   -0.63167317219859
O          -0.86919620755154   -0.12470331345081   -0.14900558871469
H          -1.34491327257017    0.64361631366432   -0.58537043191051
H           1.74271327369134    0.56332689962889   -0.11435953472007
O           0.17734771243413    0.90336710099868    2.31907460718747
H           0.86055786590132    1.26276268699758    1.71932420125567
O           1.92543182224941    1.44638364397517    0.30281904600247
H           2.87811013102925    1.55244314543442    0.30412609875114
O          -1.59090113257833   -2.80583540003690    0.83241164801469
H          -1.24192752480467   -2.68874661792304   -0.09124537733545
H          -2.38091534816043   -2.26322047452642    0.87351491815256
O          -1.97102601767395    1.90354204720334   -1.27778042058507
H          -1.11493032900741    2.37644401220180   -1.45366909127184
H          -2.26189964467313    1.59395219185283   -2.13907826813973
O           0.50872444772496    2.56677818317906   -1.82798788521849
H           0.48216886310743    1.68488556922869   -2.25012346116230
H          -0.65069401612514    1.02306155555586    1.84332805488834
H           1.04566372912909    2.44551666032355   -1.03068251431559
N           0.61049853451369   -1.66090649210291    1.72839427009220
H           0.42317115863967   -0.70793473271537    2.14447571208036
H           1.22876079562480   -2.21899510795948    2.30727964484877
H          -0.30424668196481   -2.16241104361429    1.53700254678655
H           1.02845726149773   -1.46831907930914    0.76703474951547
