    26
        -50.45844157  Gyration_radius:  2.43461096155 Dipole_moment: 7.229
 S          -0.93122083576462   -1.84299961542087    0.62140530215532
O          -0.61147960857328   -2.00357004748227   -0.81203464704814
O          -1.56240018191161   -2.97287509623128    1.20679924071432
O           0.24114188161581   -1.33431967147774    1.34148040390130
O          -1.95558948770712   -0.61326370848096    0.61832684414647
H          -1.59419697713941    0.07784712318735    1.20376111385050
H           1.52720519276088   -1.79696690174041    0.40067392695799
O           2.10063621000546   -1.93663526595349   -0.38809186012632
H           1.51521012333259   -2.39920077910175   -0.99757745012263
O          -1.10437916320250    1.66951969062783    1.79251184794566
H          -1.29407724232486    1.82202284779327    2.71904640014105
O          -2.17646137202643    1.86521524455296   -0.70681727096549
H          -2.84538357811927    1.19142760197013   -0.54671515659439
H          -1.81959376751059    2.07098962764795    0.17456032337864
O           2.30172802671342    0.57687923774838   -1.03881665963364
H           2.32199866405320   -0.39655582071935   -0.79736331175031
H           3.16710984241510    0.78742781043706   -1.39038564103833
O           1.40525433792566    1.04122805764756    1.58148020298319
H           1.12106916834012    0.10799066609557    1.65785017520108
H           1.81505070159255    1.10284384038388    0.70579628496172
H          -0.11464603660429    1.55415297331868    1.72699320860580
N          -0.29777255810704    0.30461622948303   -1.82814267699874
H           0.67299113712986    0.58739069904136   -1.60074149713764
H          -0.99724027923947    0.97284400691226   -1.41045656110381
H          -0.42140755538139    0.26233195763839   -2.83460861544638
H          -0.46354664218210   -0.69834068794410   -1.39893389691308
