    26
        -50.44427408  Gyration_radius:  2.44222180219 Dipole_moment: 5.011
 S           1.56393896024017   -1.23604365251647    0.57852672076561
O           1.74435376691671   -0.80394796372470    1.93734981659728
O           2.10109609845498   -2.49473986518271    0.19167457893461
O           0.03750053149951   -1.23452807282711    0.28547025880860
O           2.13842922922748   -0.16725645014034   -0.37310890636690
H           1.54056935809031    0.66396678507327   -0.41672953719952
H          -0.50480233845013   -0.84228695910030    1.02897196129862
O           0.58790119017075    1.80774135667546   -0.58261743228406
H           0.98685249883120    2.45545534622913   -1.16547153990781
O          -1.31413655223762   -0.16787703563923    2.22731651793001
H          -1.15415062216158   -0.71105210274819    3.00181162836044
O           0.99535637248063   -1.90988989019573   -2.27557413949831
H           1.80240276158255   -1.59937470643246   -2.69164765724138
H           1.27605782952175   -2.30468152950848   -1.43743922052881
O          -3.04587789487589    0.39289452631366    0.05406898830379
H          -3.33281214296800    1.28349751632394    0.26340073620613
H          -2.57688323135273    0.06956876226078    0.83501798279641
O           0.57192699693821    1.59811137510393    2.18299770999677
H           1.20536622723892    0.85628269047183    2.22945243068018
H           0.57037318980053    1.89442447074279    1.25914715545608
H          -0.70343858566892    0.62339902053634    2.31218351568405
N          -0.94307812876785    0.33861391794929   -1.95858965467041
H          -0.42222776384502   -0.53558384262773   -2.03821686119098
H          -0.11206351302750    1.23721076416875   -1.18230297034977
H          -1.24522256486839    0.62120929781950   -2.88186007606681
H          -1.76743169278518    0.16488623097279   -1.38383202652843
