    26
        -50.46213783  Gyration_radius:  2.5770893485 Dipole_moment: 3.865
 S          -2.31854827155656    0.19168987851385    0.38198534206968
O          -2.34781002795615   -0.27293138111669    1.75097550585678
O          -1.42698200003597    1.32925019967859    0.17262286869123
O          -2.04157176996610   -0.86090309529454   -0.57880498197295
O          -3.78653191471552    0.72180102849075    0.09166215597080
H          -4.21885641156581    0.43849498091992    0.88971283442697
H          -0.80595636979364   -1.82491891070088   -0.59146943171138
O           0.01708932207163   -2.39030298657674   -0.59524151079470
H          -0.21848668590096   -3.18479274693959   -1.07611939612526
O           0.96016859400788    0.91888820263277    1.26423805099024
H           0.08079414524585    1.26730405479327    1.00916199624642
O          -0.43706153632824    1.38715596822573   -2.25366969723488
H          -0.32944656641161    2.32428290222863   -2.42609388208626
H          -0.94050785807321    1.32777773903910   -1.40604447616089
O           3.58982069640152    1.07032082781077    0.13533245272369
H           2.84486305963703    1.22653054191391    0.73314054426929
H           4.37815335170465    1.33503267272630    0.61009911678966
O           0.04169678256617   -1.39558804014890    2.09979130739029
H          -0.88197806559411   -1.07077466578896    2.11337085884248
H           0.10698671748988   -1.97593845436904    1.33054970292437
H           0.75197230588544    0.09302668759637    1.76918051171886
N           1.41732355070798   -0.14695781403186   -1.11400163554798
H           0.80837314940744    0.41751298885219   -1.75462243237083
H           1.28574788121696    0.27812107047608   -0.14215992724746
H           1.06474150705695   -1.12306861414142   -1.06912763438815
H           2.40600642474740   -0.08101302490071   -1.34446825270818
