    26
        -50.45387508  Gyration_radius:  2.63144440309 Dipole_moment: 5.318
 S          -1.12488669478626   -0.49065187078704   -2.33401856034567
O          -0.87044872600298    0.76180366042498   -1.59806889633507
O           0.09389208966297   -1.03579363713956   -2.86254430734045
O          -1.88707860260830   -1.42161935549126   -1.51690411615602
O          -2.06136495641118   -0.09595936398920   -3.55248688624537
H          -2.90632872449818    0.10122341638965   -3.15513878595022
H          -0.70664160233933   -2.06546170421383   -0.68978755173690
O           0.14950362597283   -2.36891726106916   -0.27454204857280
H           0.42575459998445   -3.11640780553086   -0.80873953805065
O           1.95066253596568    0.53158268398559    1.89355503906250
H           2.63272510310182    0.20656751193219    2.48153673401683
O          -1.60017289501716    1.06230159539589    0.98499205223509
H          -1.04205640557805    1.83130375420875    1.19592311718297
H          -1.50509013658699    0.93826227752209    0.02421748239141
O           0.38758237766535    2.83344941225402    1.78447723564863
H           1.04664995477007    2.12473340776432    1.86245534871737
H           0.19311718595963    3.13014814918880    2.67491209909501
O          -0.19351441743652   -0.86457145962161    2.11589619560152
H           1.12569842157326   -0.03010826600566    2.07214350318684
H          -0.85289142130012   -0.20656537907974    1.77286374306479
H          -0.18689977384127   -1.58085487873723    1.46929369190336
N           1.42111455163982   -0.03347770484792   -0.69903866098221
H           1.78276042413306    0.33907785650965    0.20355955387077
H           2.10815722031786   -0.01918783954355   -1.44652253463959
H           1.06897592864042   -1.01753146014601   -0.55970454348572
H           0.55078031705375    0.48665424061447   -1.03832936614317
