    26
        -50.47114536  Gyration_radius:  2.4107894136 Dipole_moment: 3.635
 S          -1.13360696780816    0.13712274069202   -1.64886161986485
O          -0.71207461622946    1.49600866016305   -1.35003334305357
O          -1.98808837000132   -0.41358308956358   -0.61097835796606
O          -2.01509120506158    0.22891105816938   -2.96133278298112
O          -0.02932456117923   -0.74727827543270   -1.98166485780335
H          -0.18925063643817   -2.09458054582904   -1.03346927582876
H          -2.66953668355209    0.87625751788225   -2.72168366030258
O          -0.46323858779535   -2.67606482418924   -0.28835876378960
H          -1.39499822157709   -2.45075812463761   -0.17953541010449
O           2.29590978615202    0.58255310341142    0.89013442936518
H           3.22445563973431    0.72390565712496    1.07809079479347
O          -1.55656323956348    0.17484249351538    1.94602797333754
H          -1.13371456380835    1.06069398221150    1.84419337901372
H          -1.90134143164056   -0.02821652357395    1.05037705942600
O          -0.05817008013230    2.20587572918187    1.16595509683813
H          -0.34645436642529    2.09589178477886    0.23971573500189
H           0.83786587754810    1.84534689401896    1.20352305733511
O           1.89058371895048    1.00669379711190   -1.64151148263239
H           1.45956805511877    0.18549085259631   -1.94226841371827
H           1.13769423710776    1.61923968118836   -1.61830874234114
H           2.18981322205789    0.72996416168877   -0.09663703994272
N           0.53687831838893   -1.32660931953971    1.74873028288661
H           1.29393403606753   -0.68620127132853    1.44001551887613
H          -0.34453175409407   -0.71838834358274    1.96110120159096
H           0.24540748866031   -1.96370104484216    0.94752484729828
H           0.82387490552486   -1.86341674121879    2.55925437456971
