    26
        -50.45584568  Gyration_radius:  2.50544103569 Dipole_moment: 7.197
 S          -0.19290278791619   -1.53490938115936    1.15388914197803
O          -1.06071531629854   -0.37352808646768    1.44532654122839
O          -0.61264474393321   -2.73948350956872    1.77391319440765
O          -0.00376124700817   -1.60330319564071   -0.30447029912162
O           1.22540789589096   -1.13919646833638    1.73127107737403
H           1.63617422186541   -0.52676861816024    1.09664148001735
H          -1.57019950230313   -1.30150178915034   -0.82183613326897
O           2.45070459906183    0.47052263834597   -0.13503506647636
H           3.34128698449603    0.60823884469654    0.19126352969935
O          -2.46224337065030   -0.92459047977694   -0.97684427102114
H          -2.80798700829109   -0.76307470788203   -0.09487804624439
O          -0.57381260310688    2.10028041155372    2.54403086415578
H          -0.81331076762121    1.16993272876423    2.39148201251751
H          -0.76168100787677    2.27793021367324    3.46596858130093
O          -1.71323852973011    1.26657234997558   -2.24408374056674
H          -1.44348338726198    0.99485903554803   -3.12224013498746
H          -2.13598207164043    0.46913187582250   -1.83172851737085
O           2.27158174576121   -1.72421482453044   -1.54454318073501
H           2.49124528723589   -0.30422705830621   -0.75378196463340
H           1.41175971138803   -1.85493593374248   -1.07385214550002
H           2.08277128824897   -1.84730284295120   -2.47604521137233
N          -0.13836930505105    1.47832594251980   -0.10480652825643
H          -0.55494183716366    0.66542523355375    0.46353622846223
H          -0.25438377686655    2.30266944823300    0.48705151286795
H           0.85953860496802    1.28407923408084   -0.25351929751959
H          -0.67081306619256    1.54906890890718   -1.00670962693016
