    26
        -50.45316418  Gyration_radius:  2.76341548146 Dipole_moment: 6.495
 S           1.71368776301884   -2.36927486367121   -0.80169658669563
O           1.81932400101705   -2.14621398656791    0.64141400677567
O           2.86098303447994   -2.95720219636894   -1.40985524312456
O           0.52647284648003   -3.46771889427676   -0.95711583771318
O           1.16582677508062   -1.18518264750480   -1.46093070898437
H          -0.44823782411149   -1.32508194940751   -1.25531395366829
H           1.03862583400415   -4.26137185016961   -1.07056597987660
O          -1.37153499445208   -1.38523883888560   -0.90288400828836
H          -1.59265183902319   -2.31603312418949   -0.96903255926643
O           0.88079193020837    1.40053998894366   -0.79254836222375
H           1.20054593410960    0.59268460173861   -1.23389075163910
O          -1.68439128869197    1.79150442989251    1.70607266413282
H          -0.86685553283432    2.32993405214993    1.64317845206134
H          -2.34960461721949    2.35432852919988    2.10321810368109
O           0.63066030484414    3.13402927135918    1.29097987195968
H           0.94590650592898    2.61522968634245    0.52974490436417
H           0.67353605518890    4.05319519221448    1.02342893804409
O          -1.77375959348313    1.38713854691503   -1.05968688366114
H          -1.93135791919812    1.51682616086092   -0.10874277032264
H          -0.04536502195300    1.52091178405428   -1.11095771587407
H          -1.89353553549322    0.44183861334815   -1.22107923911478
N           0.08986655872435   -0.33734604833998    1.12162805402715
H           0.85049301157637   -1.10561480775992    1.06431700641471
H          -0.15091267324123   -0.03916558654896    2.06163899318546
H           0.44725316683006    0.46811284743039    0.55098545124090
H          -0.73576688177446   -0.71082891075895    0.61769417456053
