    26
        -50.46764448  Gyration_radius:  2.52662493499 Dipole_moment: 3.909
 S          -0.82434162902597   -1.93043695038531   -0.98479844062714
O          -0.41182492618373   -0.73897317824441   -1.72920375808689
O           0.17836917799175   -2.34295857881723   -0.03715814063158
O          -2.15253267108664   -1.76162665244322   -0.41746707050860
O          -0.97127249657001   -3.08925042931084   -2.05435772702891
H          -1.83738031159485   -2.89445711650531   -2.39512304734106
H          -2.19314022924989   -0.68186460947522    0.73904653880980
O          -2.15083624341642    0.02696249928643    1.43820353276351
H          -2.95177773465289   -0.06910610568521    1.95588292803657
O           0.76676212428930    3.00113614583140    0.32409942526143
H           0.34915420187982    3.58619385356860    0.95725679090297
O           0.36994810228381   -0.80581172067174    2.07103614768381
H          -0.52241025167889   -0.41569909910957    2.03650930725523
H           0.34726982039815   -1.51747478468679    1.39024083901226
O           2.11878952125621   -0.17356502369121   -1.64940105913219
H           2.15962263560529    0.52174197919775   -2.30982033418659
H           1.19139579761604   -0.51826110292320   -1.69086390706382
O          -1.20486284781633    1.58235498502639   -0.64858200513111
H           0.02213202234890    2.52961616283498   -0.14139553791417
H          -0.93592070236623    0.79171403728060   -1.15711888333122
H          -1.66251787685527    1.22599111776176    0.12848441625958
N           2.08340568117251    0.74256485551061    0.84749819283402
H           1.40767697592656    0.11840853886281    1.40503414477305
H           1.65757589099622    1.69580812465108    0.73812924814495
H           2.98660872914313    0.78822354296797    1.30526836785233
H           2.18010724951829    0.32876950912823   -0.12139996860715
