    26
        -50.45960421  Gyration_radius:  2.54620448301 Dipole_moment: 5.077
 S           0.48939252313599    2.17783313710655   -0.19912285178457
O           0.66054143404244    1.90867243873971   -1.61774115924388
O          -0.73274209225678    1.60172229731511    0.32633389424504
O           1.67424927929837    1.82598342014241    0.56382752700086
O           0.32087876235873    3.75156347618120   -0.03912791281497
H           1.20767787929417    4.08417078720904   -0.13858959446173
H           1.81441651306926    0.36071265861951    0.06728906604292
O          -1.31094512389987   -2.79133573402402    0.46429793426993
H          -1.26178499910216   -3.74184780264806    0.57112383514483
O           1.90848112735681   -0.55953388349708   -0.31192101368530
H           2.73448555825158   -0.54095091576048   -0.79910223177644
O          -0.60067255244438    0.51074997115602    2.73862395247284
H          -0.57874606668308    0.98561494788191    1.88068997522902
H          -1.52705075343241    0.44666594148230    2.97776779156484
O          -1.65192945499603    0.84417694260935   -2.05287075172136
H          -0.80614478413714    1.34461105493337   -2.14568982954576
H          -1.92358589092038    1.09640113705739   -1.15800577316391
O           0.57993698589369   -1.74748084468740    1.91118448516204
H           1.21944368021188   -1.39960303112559    1.27581356572006
H           0.20211364417657   -0.95258723514738    2.34855110591911
H          -0.64356293627784   -2.40735322430957    1.10550480315387
N          -0.35399396587375   -1.37619946283607   -1.56842827446644
H          -0.16216161747748   -1.90628347021269   -2.41162072619237
H          -0.96707165164797   -0.52117935304357   -1.79867675497067
H          -0.82756047301527   -1.97749914416144   -0.84121563401529
H           0.53633497516649   -1.01702411900090   -1.14889541812451
