    26
        -50.45316419  Gyration_radius:  2.76335116508 Dipole_moment: 6.494
 S           1.55852193709369   -2.50482631993016   -0.69931678691667
O           1.07559002722092   -2.58977475594320    0.68019492481745
O           2.76545961598726   -3.21548922442688   -0.96400532281250
O           0.41222362362101   -3.24966285525830   -1.57760799949382
O           1.50241689276115   -1.12335817014477   -1.17391693121813
H          -0.05109278926591   -0.92330632953668   -1.63625018770857
H           0.81363934231724   -4.10379704924799   -1.69751192708340
O          -1.03584906749319   -0.83429504799653   -1.68715609394133
H          -1.33069370493211   -1.65900248525374   -2.07776799873212
O           1.31089405649945    1.28334185971138    0.00254927730088
H           1.67547992673269    0.52203110245581   -0.48446957689321
O          -1.99008853400903    1.77585016095397    1.35780324389644
H          -1.15816995301823    2.11247878883771    1.75378736684123
H          -2.67881574536140    2.39149765015782    1.61011860763040
O           0.44126001506857    2.59981501224310    2.22039246261419
H           0.97514117002106    2.17647726963171    1.52486665138364
H           0.71561993190898    3.51762244442459    2.24576408980728
O          -0.96003900459079    1.93426905489217   -1.23736464801553
H           0.63013245451272    1.67251416895444   -0.59639481097221
H          -1.12600336641783    1.09038825513372   -1.67814283056699
H          -1.48438924405767    1.91441935762183   -0.41846084549875
N          -0.43663780829385   -0.55503839829022    0.93876284230090
H           0.23172630768884    0.23924773434827    0.78216954401015
H           0.16734616338697   -1.45301767410819    0.96879958237086
H          -1.00830103934868   -0.39303727182468    1.76184238835035
H          -1.01537120803774   -0.62534727741942    0.08131497850886
