    26
        -50.46284130  Gyration_radius:  2.50909006168 Dipole_moment: 6.019
 S          -2.12554126320045   -0.14888723226838   -0.06178511739726
O          -2.00998066487094    0.45621329622643   -1.37906259561613
O          -1.27125104045807   -1.29909985552414    0.11259720791729
O          -1.97856550069775    0.85507082259019    0.98972094091688
O          -3.61430504908380   -0.69046955516567    0.06248036774001
H          -4.16453162985150    0.07986274475867   -0.04630606007621
H          -0.67756022208117    1.53965117321321    0.38852091669669
O           0.11754977016476    1.95840809936155   -0.03552624042659
H          -0.24171978415661    2.68030091832286   -0.55567672429419
O           2.98361311463090   -0.92159482301245    0.30996661396786
H           3.91997054330937   -0.82439006146074    0.48568211881097
O          -0.54876890589632   -0.73017347929395    2.64135470038829
H          -1.16492229720786   -0.00704709143766    2.45206334430420
H          -0.65274308917347   -1.30069199375930    1.86339016077195
O          -0.47306002341177   -1.36409114168155   -2.41857168466004
H          -0.61280535756529   -1.91303941748538   -1.63216437862252
H          -1.14518089361286   -0.65659690497118   -2.28566182579985
O           1.68256203473915    0.58065682300103    2.00043684872673
H           0.94083339829375    0.05142132215205    2.37998319930852
H           2.51161622849356   -0.43322845601256    1.04151269532169
H           1.25690152415776    1.26949696803596    1.47792155781623
N           1.47041962970598    0.17084318852459   -1.57189956053120
H           1.98324743924087    0.62603797747152   -2.31938766972042
H           0.93739540327209    0.87453357986424   -1.00619224716475
H           0.74940334110863   -0.51891169207892   -1.97526691200528
H           2.12742327416468   -0.33427521938096   -0.91812967638241
