    26
        -50.43883870  Gyration_radius:  2.61619114334 Dipole_moment: 7.861
 S          -2.81191143116467   -0.54555007950526   -0.58521702256162
O          -2.15143002466713    0.54309506174575   -1.25740816349822
O          -4.22403534996648   -0.59833671724331   -0.65184024347613
O          -2.23090200462046   -1.89435146608374   -1.07816270963706
O          -2.32971190304342   -0.51767997110449    0.90634105276065
H          -1.77038966862675    0.29674526588476    1.04150094903452
H          -1.25738422342445   -1.89940301877566   -0.88318536895818
O           0.28702917677996   -2.03412360781406   -0.40392384281220
H           0.41488473288075   -2.96737337061029   -0.22560486358775
O           0.26760551720224    1.67239483229926   -1.20064257945247
H          -0.63009290376667    1.40601177335690   -1.46812168700403
O          -0.86068741118834    1.60583760148016    1.21450050067993
H          -1.47367754935635    2.34326349489119    1.18765833771118
H          -0.36710541087545    1.63692143272424    0.35683390436054
O           2.61966524460656    1.37733072788245    0.42320991642692
H           1.84118284546274    1.71735981017586   -0.04324260272830
H           3.26924476786305    2.08154834961282    0.42037119322837
O           1.95102422374243   -0.33806099513166   -1.82152111558004
H           2.54585622996480   -0.10246737874585   -1.09991218899882
H           1.38416589253906   -1.05116420320863   -1.48616175980959
H           0.84629822069431    0.99002449088015   -1.60875002995760
N           0.97376861325835   -0.71783928647251    1.74708104778571
H           0.50028057104196   -1.53586895542510    0.46069728056799
H           1.70492848767442   -0.07249822105439    1.45930095265059
H           0.18883363988019   -0.15398726068384    2.05236459785395
H           1.31255972710469   -1.24182831908137    2.54383444500083
