    26
        -50.43883867  Gyration_radius:  2.61632677276 Dipole_moment: 7.861
 S          -2.77781362733931   -0.24095134552114    0.88027397486954
O          -1.73035417892211   -0.16867995280187    1.86556196802731
O          -4.05861608293707   -0.65774039063477    1.31286334475043
O          -2.90710568105836    1.12088068684429    0.15325804565961
O          -2.25496106851111   -1.16778067035097   -0.27112168452708
H          -1.37799450541772   -1.55215722859610    0.00742708578663
H          -2.03458124905759    1.32498913450219   -0.27420856249441
O          -0.69902769436231    1.60084954691063   -1.15365118309180
H          -1.00297685813377    2.07082835220500   -1.93202079397122
O           0.93627368049683   -0.03088767375232    1.85285885648899
H           0.00291705707258    0.00516955626716    2.12828615914710
O           2.97908724574105   -0.20281465655527   -0.16038955374994
H           3.87792010124853   -0.38821859169668    0.11467333284335
H           2.41784958875901   -0.34136757489297    0.61744448568186
O           0.03838473405678   -2.13492616103111    0.48250805119468
H           0.44303601773784   -1.35954739350620    0.94641430442376
H          -0.16895692885202   -2.76977158397712    1.17116374884249
O           1.47503194484252    2.20443179707693    0.44781308624034
H           0.66420210514940    2.18615209776253   -0.08556596788173
H           1.11469168040084    0.87326638186046    1.50966374479405
H           2.15057596911935    1.75115118272201   -0.07015279642651
N           0.63345226235347   -0.49536384781906   -1.96725821527551
H           0.21220673900038   -1.32718372487596   -1.56988974970791
H           1.56169478840926   -0.41308658017442   -1.56049292866635
H           0.73838088706210   -0.64173139479430   -2.96310624520413
H          -0.23331689686587    0.75449005482993   -1.48235251774473
