    26
        -50.46179021  Gyration_radius:  2.4378315805 Dipole_moment: 5.896
 S          -1.36677397590952    0.12907344988598   -1.55653238772974
O           0.03468547708589    0.31054250468948   -2.00131495646251
O          -2.31132363238305    0.14183716779827   -2.61470190085445
O          -1.42928651377084   -1.04565192972092   -0.67207205379739
O          -1.65887520195321    1.37091019912319   -0.62116354500630
H          -1.25533696030064    1.18058608876452    0.24911714485221
H          -0.37473721168892   -2.17830176893912   -0.23340573460426
O           0.32594803062837   -2.79677772749186    0.10161755223232
H           0.23063879594656   -3.60068467492358   -0.41061740229720
O          -0.72058074542472    0.98150044959558    1.86983043374405
H          -1.24941014345170    1.55954290995922    2.42243346625024
O           0.89552152535528    2.64411066268262   -1.06474208623273
H           0.59171465806434    1.84669616693817   -1.54846044216632
H           0.10915271231564    3.18134894986589   -0.94933404927209
O           1.88320234723741    1.34259606833700    1.06434215789702
H           1.04906104077793    1.24082106814138    1.55017675072266
H           1.67432451744776    1.97982420065132    0.34504285178441
O          -1.73910736575979   -1.41922748356647    1.91764177719195
H          -1.07579603328629    0.06112030895321    2.00909844683099
H          -1.87287953317878   -1.33162597669734    0.94915939119824
H          -1.10002472971869   -2.13071459559901    2.01628920795129
N           1.90143308008985   -0.71386398903097   -0.55929879513907
H           1.14640416096450   -0.33017303678498   -1.22909649481489
H           2.77383538099571   -0.86021356936494   -1.05444197655198
H           2.01167114189189    0.03883836367012    0.19214015390427
H           1.52653918801813   -1.60211382693317   -0.17170749962533
