    26
        -50.44360240  Gyration_radius:  2.53094679845 Dipole_moment: 5.966
 S          -1.65590046374885    0.49400481747346    1.79576446300692
O          -2.04518166878314    0.55738678812233    0.40507958593779
O          -2.66642026548234    0.64723754653509    2.76986098013144
O          -0.86724921661869   -0.83035209771197    1.99092748698050
O          -0.55446732983645    1.56242038813738    2.04727449595683
H           0.18610354626599    1.42097860446762    1.40348255887483
H          -0.99138029558569   -1.37348048762424    1.11792557329065
O           1.48835070607389    1.11464440183422    0.45780107311488
H           2.18646523606905    1.72953525401801    0.69204873249854
O          -1.19861619981060   -1.89983245174496   -0.24842376668455
H          -1.84028449234139   -1.21417158211245   -0.48046429956447
O          -0.41205515180912    0.34719733670952   -3.43083407915776
H          -0.53144369491071    1.07994188431639   -2.78645961945133
H          -1.27313376378718    0.18223154169626   -3.81595349505576
O          -0.64169558104001    2.02964568975816   -1.34673014615828
H           0.19631944955987    2.01011514412042   -0.87440323328180
H          -1.28284807586470    1.58547316247925   -0.76067989956601
O           0.91916775843450   -1.00946359582713   -1.54381372587288
H           0.51617519984516   -0.68132270246957   -2.37495429991612
H           1.19589822123125   -0.21373232485367   -1.07565572275604
H          -0.37579502869684   -1.67970081822205   -0.76299849711890
N           1.99091797385395   -1.26233139138485    1.41076142305956
H           2.80454627743875   -1.50303399123777    1.96192494967467
H           1.75012246210232    0.21166002482291    0.85236448260031
H           1.94204371941208   -1.89474283997169    0.61999394493964
H           1.16036066803940   -1.41030830133958    1.97616102451576
