    26
        -50.45724315  Gyration_radius:  2.4965697295 Dipole_moment: 7.207
 S          -2.04516917140469   -1.28710853770307    0.07492267964830
O          -0.88917584317971   -2.17883315516168    0.30574591987996
O          -3.25872272063441   -1.75933439978769    0.63866529603205
O          -1.66175352052868    0.07785874282063    0.47871208420072
O          -2.21275488474801   -1.21024917844487   -1.49775833923863
H          -1.50547146857118   -0.63383055127446   -1.83880886507014
H          -0.59772615072830   -0.10664240829193    1.62766471529987
O           0.11201829390070   -0.18610428713139    2.32281246200044
H          -0.10266513207677   -0.98866230724717    2.80057112638888
O          -0.21204755467564    0.35462230376288   -2.52180670816793
H          -0.51190869894466    0.67899395616770   -3.37188865039972
O           1.07984957240105    2.32315824493017    1.49995894426575
H           0.65120182787284    1.58091061867536    1.95566997597301
H           0.88572274012246    3.10858874555416    2.01345775942831
O           2.41327376267796   -0.14200844350329    0.92589924090701
H           1.66919830038419   -0.28011749706448    1.55267886752689
H           2.47118019781810    0.81507871689302    0.83416674221845
O          -0.59062804543300    2.15234702040049   -0.71754492123872
H          -0.29883441281455    1.12448854663427   -1.87870280142243
H          -1.16758029065552    1.51555815059955   -0.24292544762411
H           0.12395861623862    2.33860433005992   -0.08572398638795
N           1.15307191363201   -1.46225353612138   -0.99940181309732
H           1.64598882584419   -2.25384818837281   -1.39675491189721
H           0.81753119033548   -0.82681592639584   -1.73583191646265
H           0.26603012404200   -1.81481466459282   -0.42770604288720
H           1.76541254912157   -0.93958627541585   -0.31607139987172
