    26
        -50.46018585  Gyration_radius:  2.38740680764 Dipole_moment: 6.530
 S          -1.87235510250003    0.51624010045998   -0.40604737874005
O          -1.76897301805986    1.97382992978376   -0.53279075021762
O          -3.07569747698680   -0.08281626940335   -0.86818780586544
O          -0.65475791431550   -0.08968851464828   -0.98344952136140
O          -1.79572220165699    0.22334011149573    1.14872057159807
H          -0.90505708120258    0.44637408724370    1.48593391002771
H           0.68782724635550   -1.16015785059043   -1.08945403201929
O           1.51304231916622   -1.68129455507112   -1.14303522144425
H           1.26624202807083   -2.50996800622168   -1.55781752289376
O           0.69911057844526    0.60584283119329    2.05760822187575
H           0.69873124602996    0.67351217945547    3.01369704300299
O          -1.47485229359413   -2.39188655057978    0.15362865486131
H          -1.37290943661897   -1.57880880842212   -0.36630700339821
H          -2.39096660935965   -2.38389406575003    0.43703746824403
O           1.46643267084621    1.02658191979192   -2.18459862141242
H           0.56884899304452    0.65787724242839   -2.07206365509554
H           2.05331982427031    0.27659363211451   -2.03159998989859
O           0.86744148858546   -1.89432955639557    1.49684710476612
H           1.37225355625560   -1.92165640897217    0.66344689790803
H           0.84034242092808   -0.37756009834376    1.85316453432413
H          -0.03375174765976   -2.16641956863612    1.23203623747974
N           0.69014777077980    2.39126035385203   -0.04641538032988
H           0.87847751120571    1.81901208384376    0.79106471142782
H          -0.38819681485133    2.29850720377143   -0.26523818304086
H           0.95227646889243    3.36063758103931    0.09509135494862
H           1.17874558393671    1.96887100657289   -0.88127167474053
