    26
        -50.44677245  Gyration_radius:  2.45110063352 Dipole_moment: 4.977
 S           1.90646970742547   -0.91282750148750   -0.37896718735022
O           1.46103859278411   -2.16566853791058   -0.92118168788045
O           3.24949838577422   -0.50836963935772   -0.60781391862644
O           0.96859851076899    0.20033106274644   -0.89800046754752
O           1.69102013685434   -0.92270233554586    1.15666822229995
H           0.72376774066132   -1.04667033610939    1.39399479364417
H           0.08045808720787   -0.09195867755814   -1.27839483754191
O          -0.80213629315432   -1.18933747242599    1.70279415100289
H          -0.96041327909412   -1.73570543836276    2.47509764397634
O          -1.33637214269849   -0.25623521356353   -1.91854950399179
H          -1.25176324311789   -0.02791676648055   -2.84572747450388
O           2.55711295444693    1.71793082648376    0.85966135313932
H           2.87035866609401    1.05541656212746    0.22667496113779
H           3.00190666516721    1.52194642864664    1.68727713894365
O          -0.21702683998809    1.73699878933607    1.38252538487050
H          -0.37054818043369    0.82685434977643    1.65512662115227
H           0.71883719701684    1.79733157495189    1.12146847014090
O          -1.13379598635970   -2.57137854817444   -0.44885687600954
H          -0.18441574261615   -2.65387327572758   -0.67235840935118
H          -1.06194020663944   -1.74291979766423    0.90352304730979
H          -1.48320412373295   -1.93481528227406   -1.08954688617810
N          -2.13911723068947    1.86321036996699   -0.67992468083820
H          -2.08217719165760    2.72189008394618   -1.21267879462780
H          -1.42804131987218    1.91424601334433    0.06169766105206
H          -3.04559176814012    1.83332664960118   -0.23083018202141
H          -1.73252310598842    0.57089610173348   -1.44367858221285
