    26
        -50.46774652  Gyration_radius:  2.5117231816 Dipole_moment: 3.531
 S           0.42815056578670   -1.26303866247471   -1.37535019678895
O           0.85202413662279   -1.85189026450928   -0.11419971884807
O          -1.01058397742397   -1.15194076018017   -1.49630265603729
O           1.10149596675650    0.00467668732264   -1.61457337178162
O           0.89273535365495   -2.25034852965815   -2.51836693311721
H           1.83582934451361   -2.29082377097318   -2.39434858905957
H          -1.75118688618132    0.38619735511911   -1.50791560556341
O          -2.16785759465352    1.26542848207360   -1.38377611381001
H          -2.39866756307154    1.57342920259803   -2.26072370250712
O          -0.73651038092218   -0.73056473648456    1.73164174203467
H          -0.19781152774793   -1.33204009592941    1.18380665419901
O           2.37162034659722   -0.36743117372212    1.55961429664467
H           1.94471809946792   -0.64201223663190    2.37507690937757
H           1.94156534417149   -0.89498559954483    0.85928789139711
O           2.20178168157821    2.32526519619476    1.44328259054974
H           2.90187236924874    2.65935436195548    0.88087795047922
H           2.37918143611149    1.36465396890164    1.55260639481991
O          -3.01439445768985   -1.09451183886125    0.35302699928283
H          -2.42294841435947   -1.37126641592573   -0.36690299913744
H          -1.66251531899584   -0.91280713062911    1.46637905701863
H          -3.35137365771248   -0.23499288343232    0.08372880905785
N          -0.03736158984104    1.39188321396138    0.31683359998620
H           0.47154555415819    0.91280292963429   -0.47245445487557
H          -0.34513598520775    0.63086989921984    0.99511249212776
H           0.63835001250693    2.02836368013390    0.78697811967155
H          -0.86452285736434    1.84572912181388   -0.08333917512597
