    26
        -50.45499940  Gyration_radius:  2.50016011748 Dipole_moment: 4.586
 S          -0.44744862849128   -0.27598732406309    0.97068142072030
O          -0.40996206122991   -0.90745227393756    2.37524787237996
O          -1.55168863328354    0.67648880960723    0.94751104748359
O           0.82477364534118    0.40753558909085    0.73124611946707
O          -0.64940067964588   -1.33718010577688   -0.01627094589096
O          -1.31673140515442    2.98961426901235   -0.12344760030398
H          -1.32206412635326    2.14660973240298    0.41391602831803
H          -2.08910070457357    3.48670243813886    0.15210927828977
O          -2.49648810950455   -0.27005904866433   -1.42844286396891
H          -1.78315709609576   -0.82371864868758   -1.00236467789812
H          -2.95622768447804    0.10007228891444   -0.66530782092588
O           1.18925347390232    0.97833479382881   -1.73705903357214
H           1.78011264390510    1.73451419688325   -1.70720858577986
H           1.06735162288239    0.69324041969748   -0.78345367982557
O          -1.17055755831578    1.67325444671383   -2.27952642809008
H          -1.76550112849028    0.82741160269185   -2.02164510209249
H          -1.28384860375189    2.32545274965567   -1.49039667547811
H          -0.18293045616520    1.35752067046321   -2.18252175723521
O           0.69267350438488   -3.05604282685138    1.55896123942037
H           1.60620370028539   -2.70525287093177    1.41423411934758
H           0.02096227163889   -1.80724051323506    2.22618418274332
H           0.21395192810143   -2.86135071033120    0.73905000027097
N           2.87095085452146   -1.56854150590168    1.03851221897554
H           2.24149411880344   -0.76925998471722    0.95131490186038
H           3.36786867413555   -1.66500133060524    0.16191218903282
H           3.54951045763078   -1.34966486339778    1.75676452274878
