    26
        -50.44596026  Gyration_radius:  2.52145483944 Dipole_moment: 3.885
 S           2.07722121933083    0.27390382816207   -1.32197600950749
O           2.31618681390056    0.87806567784883   -0.03020239689963
O           3.20623241227143    0.02920584873981   -2.13675751267475
O           1.27418612071553   -1.03799041059264   -1.07114520894971
O           1.06820111559379    1.14183747141606   -2.11073907008085
H           0.16734858863041    1.09756679452668   -1.67660799705885
H           1.11807916356532   -1.09838219575433   -0.06880730288064
O           0.98820199549408   -0.94895974874296    1.45554226678848
H           1.78209021244205   -0.40843559130014    1.54090121883143
O          -1.30273928781872    0.88384324081983   -1.12027387437784
H          -1.92955127947100    1.35197758069636   -1.67389797054508
O          -1.74798987662908   -2.01561868803321    1.52089465208560
H          -1.85330196991165   -1.09712947843165    1.79523600515071
H          -0.84139218346562   -2.24836735288658    1.74259202058818
O           0.94217872722998    2.68402429925906    1.38979596277615
H           1.47982883424332    2.09636729875553    0.82271755139262
H           1.55626918214384    3.28644040723189    1.81040788424750
O          -0.97793773988268    0.80509408441421    1.59556183264825
H          -1.22946927317455    0.89370483569843    0.65929655242241
H           0.22956216657554   -0.31183059410100    1.57079289968177
H          -0.43137133974748    1.59270456005584    1.76519302776926
N          -1.62191052144099   -1.66396096483444   -1.32795133364958
H          -2.30137890837184   -2.10692398736211   -1.93179778372069
H          -0.69636453094455   -1.98948675078066   -1.58251260896659
H          -1.47135164147612   -0.12874992629936   -1.25123094947814
H          -1.80082799998063   -1.95890024852628   -0.36503184562977
