    26
        -50.45677767  Gyration_radius:  2.47536718073 Dipole_moment: 5.443
 S           1.61302484149216    1.40261785337743   -0.26762686704429
O           2.07793054614208    0.35446560763942   -1.17102493924683
O           0.26497853828313    1.83541737044683   -0.55111919998071
O           1.81285513800731    1.01495231585454    1.11934569793693
O           2.54678293275508    2.65312605603556   -0.53113139008850
H           3.42020832760308    2.28728699098239   -0.43573856928693
H           1.27928335970189   -0.39910257294537    1.53195232014439
O           0.95581847010971   -1.32492223899714    1.73078010821206
H           1.46124346654016   -1.61773436729888    2.49050539113045
O          -2.13353949129074   -1.35029425542794   -0.74282782203749
H          -2.78378396983717   -2.05303475416503   -0.74100458620412
O          -1.45011663563507    2.03306171933120    1.46183982611929
H          -0.74549621953235    2.00543801219078    0.78063998674765
H          -2.15427401631405    2.56497476429698    1.08681821612036
O          -0.67884962021362    0.25653636219427   -2.58242966902429
H          -1.52965903447907    0.02355859927029   -2.19793442863449
H          -0.30523557792684    0.93205709837089   -1.99611109424587
O          -1.75289720237692   -0.61770511085923    1.71990468666783
H          -0.84145152291556   -0.89749100568390    1.89491763402968
H          -1.72257908114327    0.36365452983171    1.73212490522441
H          -2.06700212433942   -1.02940592212356    0.20333686083169
N           0.54243635210974   -1.71294730012508   -0.91524485933717
H           0.71423211754694   -1.84853215216909    0.09932237172161
H          -0.47949980868550   -1.52050547465316   -1.06414252663603
H           1.11407513251497   -0.84631301749622   -1.18698843924320
H           0.84151506187614   -2.50915909787386   -1.46816362387140
