    26
        -50.45158463  Gyration_radius:  2.74987063861 Dipole_moment: 7.271
 S          -2.05995226476130   -0.09174440530592   -1.85691769933173
O          -1.87234128795808   -0.72744620896570   -0.56210296354655
O          -3.39170893193771   -0.06995884666892   -2.37025711976768
O          -1.72947979211364    1.49232534208420   -1.54372557224404
O          -1.01936724690117   -0.48841970738534   -2.79464624798862
H           0.44715787892879   -0.74231429618095   -2.39465847738914
H          -2.47429532727350    1.87902450330510   -1.99102273574095
O          -0.45897928868031   -1.05732418772050    1.72005110657268
H          -1.36129000530801   -0.94828772075476    1.38828962567330
O           1.39076299446175   -0.81077857674739   -2.05045782515643
H           1.95536498888045   -0.69493547838409   -2.81534017869642
O           1.91473612719750    2.28060750657647    1.64129284718588
H           2.87061816904734    2.31358914366119    1.69796176059720
H           1.61279737386344    1.72958034953508    2.39554809661033
O           0.99022183131642    0.51897056379415    3.45462135545801
H           0.50205938756843   -0.14542412008130    2.93716306968811
H           0.43640906641818    0.73829333274294    4.20529694952112
O           0.03650732325675   -2.62998179438095   -0.33970954331263
H          -0.76117277731589   -2.13900672093909   -0.61447632410492
H           0.73182486633644   -2.32678904450721   -0.93574892317373
H          -0.12620413111198   -1.82328182805771    1.19453665691136
N           0.48328083785580    0.76598200509555   -0.07623644348131
H          -0.32494746913756    1.19219278076089   -0.54636297340003
H           1.02733306711222    0.23752635325286   -0.79377221397374
H           1.06609216506370    1.47156753935434    0.42423830886487
H           0.11457243513722    0.07603351592817    0.62643548423249
