    26
        -50.44142313  Gyration_radius:  2.55231355616 Dipole_moment: 6.360
 S          -0.18212654333636    2.54482235914092   -0.52700661324809
O           0.66783341347001    2.70312128413135    0.62348486604322
O          -0.32491094956472    3.63227505230016   -1.41715697055550
O           0.35190754173780    1.29450317833090   -1.31742055230736
O          -1.58239865511744    2.07494373125561   -0.06919760659803
H          -1.49774741513243    1.36085448313321    0.62997603473498
H           1.02893206500521    0.81791351418796   -0.76027981066427
O           2.13645855224313    0.05122442234401    0.11942489695027
H           2.94217884862297    0.56750936332716    0.05125098659892
O          -1.46546990559432    0.18203646687238    1.68174786042353
H          -2.29398676003681    0.21243684813762    2.16278421973329
O          -0.83765279754569   -1.05236906666749   -2.41478580858215
H          -0.57732447859612   -0.12944022179225   -2.31606150935298
H          -0.05497003114983   -1.57177259906467   -2.17343586602427
O           1.31143659757357   -2.31020437555566   -1.07946403574466
H           1.64228133985220   -1.52256641268987   -0.61724876082889
H           2.06421256527959   -2.71285568897366   -1.51443922837053
O           1.12010431618304    0.75556431518268    2.37837155541806
H           1.03632602317627    1.65316779186898    2.00456750613974
H           0.21173890641214    0.41333410601844    2.37793210249281
H           1.78877329657101    0.21411587648050    1.05336933089293
N          -1.51609474960804   -1.91966050246235    0.19674837001995
H          -2.27227907834975   -2.57870946611470    0.33146271659225
H          -1.56638798059789   -1.57299202650945   -0.76649080504715
H          -1.48952172931893   -0.67838429368247    1.10094375815875
H          -0.64131241195038   -2.42886810922267    0.26092335298941
