    26
        -50.47229289  Gyration_radius:  2.48038389543 Dipole_moment: 1.999
 S          -0.43504414424522    0.14851726095548   -2.23249782231592
O          -0.16575763385047    1.19871639709739   -1.25483141855782
O           0.60662202082216   -0.85797652379592   -2.23893086563352
O          -1.77388290217338   -0.38969569444429   -2.08996216262128
O          -0.39633461263968    0.83815580185379   -3.65880392893628
H          -1.26739152471889    1.21744815397092   -3.70710602486431
H          -1.82589882077072   -1.16733401493135   -0.69248002372018
O          -1.87442684750580   -1.57119709536445    0.21173502478094
H          -2.41820234802794   -2.35516896452535    0.11999853714042
O           0.18312769099582    1.01081271507577    2.53016509017351
H          -0.01928392264534    1.46484495331333    3.34831348004513
O           0.40100157870418   -1.61587288513186    1.73551300609543
H          -0.42745542922886   -1.68918827893693    1.22471999343353
H           0.34418368812031   -0.76003338757693    2.19768530777157
O           1.86691316922580    1.67389428719743    0.44416688380824
H           1.38346491634954    1.59501678311441    1.28628645894054
H           1.17077130389150    1.72721640996283   -0.23896210855587
O          -1.79874439792166    1.15743163245113    0.84494526354231
H          -2.13104296428740    0.25117006377700    0.78588906788181
H          -0.61312435890253    1.12837676179623    1.93569576374070
H          -1.28463739695273    1.28494600498749    0.02034051046957
N           2.12661859128727   -0.87600191476552   -0.11474733706794
H           1.57785885856610   -0.91836247338350   -1.01935183605305
H           1.52254145125626   -1.30987816562436    0.64477518667237
H           3.02095069171855   -1.34310686115497   -0.20629216116309
H           2.22717335314366    0.15726906371467    0.12373610534552
