    26
        -50.46415440  Gyration_radius:  2.51959946375 Dipole_moment: 6.948
 S           0.23331578417578    0.30801973431253   -0.43884232771560
O           0.30696494282942    0.18976479257054   -1.87455060478812
O           0.41661415907289   -0.97499006247502    0.24076949080652
O           1.20030162616124    1.28102734301479    0.10164758179598
O          -1.14984070874323    0.87273060922013   -0.03754745821498
O          -0.90690209295678   -2.36419235123299   -1.60404690768329
H          -0.49034511058615   -2.00754545467162   -2.39403202367764
H          -0.37986070476012   -2.00914971313244   -0.86331468631980
O           0.80656298885781   -0.87791681759097    2.83614501978605
H           0.49282934854571   -1.15615067636861    1.94664893383790
H           0.35636205265441   -0.01670743346702    2.98280278488118
O          -0.10594854668822    1.59769518387525    2.43698289360672
H          -1.04210727476439    1.66977141905580    2.23573260586794
H           0.33674897469136    1.64407148291378    1.56849881342563
O          -1.75760197434772    0.74470964744453   -3.45192281125779
H          -1.77762362174520    1.69284212911150   -3.58837261520826
H          -0.92275451107933    0.55551601261802   -2.97338296536590
O          -2.80863977598887   -0.51823701648425   -1.31977837018621
H          -1.87669545029003    0.31527733245592   -0.51412653655753
H          -2.71449239438323   -0.08455063484337   -2.19208983198983
H          -2.30555850428664   -1.36106780093594   -1.40405793732084
N           2.86379963897041    0.10000802310175    1.66845729507546
H           3.44167958824437    0.75031445330326    2.19139262785788
H           2.09862198113456   -0.38292676856120    2.30522076336444
H           2.25472842203253    0.62901740924337    0.94559937039795
H           3.42984117326858   -0.59733086248732    1.19616690558142
