    26
        -50.44413466  Gyration_radius:  2.53124881765 Dipole_moment: 9.214
 S          -1.14387521114341    1.45124704850728   -2.00965092402821
O          -1.44761962328684    0.01142421066309   -2.22090261670772
O          -1.88687728165687    2.33909403394436   -2.83074418986350
O          -1.51848129054174    1.70914046157798   -0.48963501985885
O           0.31220605674673    1.63630032154346   -2.05595447111877
H           1.07009263741864    1.35919733362328   -0.81678762538675
H          -1.82613414725868    0.85892960459990   -0.10305439050579
O          -0.00958206428320   -2.56306387654767    0.81992568457841
H          -0.05686178495991   -3.42085640591175    1.24241212190916
O           1.64134712860892    1.04970761952332   -0.02669712329136
H           2.40735596440976    1.62587815231262   -0.04065451208697
O          -1.89453473180391   -0.44902876732826    0.99375857816058
H          -1.42468162051182   -1.27451377423888    0.81273488896055
H          -1.34273295863244    0.05226469121435    1.61916984396873
O          -0.17925869168802    1.42836435506595    2.07018112021046
H          -0.82918761204653    2.11768270099785    1.91553858837337
H           0.39730092804300    1.44529203663235    1.28507159715372
O           1.55084709999627   -0.82511308744121    2.04849867088364
H           1.03813424649395   -0.28646266783134    2.66117901069622
H           0.60068056319594   -2.00192601075229    1.36362774560703
H           1.76232069594371   -0.22336586713739    1.31652921037752
N           0.58880974329557   -1.23527375666168   -1.50629731791120
H           1.02153375783485   -1.69965435963903   -2.29599886137640
H           1.20805220661503   -0.51511190777391   -1.12425270760703
H          -0.37733431783393   -0.68273392594701   -1.86318758560200
H           0.33848029704516   -1.90741817299766   -0.76480973553530
