    26
        -50.46379852  Gyration_radius:  2.52279383924 Dipole_moment: 4.529
 S          -0.52738234848702    0.47526113364371   -1.74690547321895
O           0.54969629115846    1.12568979565664   -0.97787507376761
O          -0.01998757417927   -0.58399175880744   -2.56880337822427
O          -1.57084072804749   -0.00155629096037   -0.81535970853118
O          -1.18974941237388    1.56764729665312   -2.63113911867254
H          -1.58135050557959    2.21266351097477   -1.99355950729225
H          -0.96709605212933   -1.43110396172842   -0.42601085383080
O          -0.45462222845355   -2.24836192569772   -0.18911697448960
H          -0.67989350770347   -2.88111721824692   -0.87411298470547
O           2.64935486184198   -0.91161677856934    2.07045671535772
H           2.99409094800549   -1.61102169212090    2.62700300401754
O          -0.94124978051929    1.47796689136294    1.22261228251762
H          -1.32496682045392    0.85659791808980    0.56014100735620
H          -0.09730784136708    1.72096340691260    0.81532077390821
O          -2.29894896898804    2.97488039741901   -0.67614168770918
H          -1.85050283583490    2.66709375353069    0.13500753048666
H          -3.18839209556330    2.61504527307229   -0.64029387500794
O           0.02433644873207   -0.84598911958764    2.36603807506295
H          -0.36348638421952    0.02644206090924    2.16254846946964
H           1.69320410178954   -0.81310921100571    2.31148623741770
H          -0.31519308552208   -1.45223129587502    1.69768177451244
N           1.92554899192434   -1.00313341461882   -0.48849012675440
H           2.54333270007763   -1.27455839871674   -1.24552861935683
H           2.39927501048194   -0.97839227931636    0.44928919032870
H           1.49872015684357   -0.04383033866298   -0.70562407308109
H           1.09341065871554   -1.64023777398936   -0.43862358573381
