    26
        -50.45884187  Gyration_radius:  2.48624170591 Dipole_moment: 8.772
 S           0.43467214472724    2.18670988686274    0.38339835040254
O          -0.72757682307831    1.81460704635411    1.18776287951119
O           0.66203197630084    3.58196168044154    0.24324079857728
O           1.68765919286985    1.48751364671689    1.05856826599836
O           0.37025082848611    1.47680158459576   -0.92629994357742
H          -0.84779661243451    0.75607204517716   -1.68220806289424
H           1.38348929798513    1.18471603566633    1.94985238409058
O          -1.53758172320127    0.17657092717163   -2.10214238703824
H          -2.10089780496465    0.76049617141892   -2.61171062715054
O          -0.07023323735576   -1.76025450786817    1.52153628774944
H          -0.33415743463519   -2.66725897549292    1.67976828513748
O           0.21923940446758   -1.79213743766216   -2.74645949864401
H          -0.53072664776596   -1.18395823898195   -2.58277001429150
H           0.51580976899174   -1.61992555861919   -3.64144176503890
O           0.47033031035115    0.51400066485013    3.13671568807603
H           0.32009281787930   -0.39397385686317    2.83506340126934
H          -0.24093428066383    1.04407622322270    2.73208630047411
O          -2.02665852978781   -0.37640922161724    0.58502629926788
H          -1.67037136474662    0.50767733051518    0.84026099269276
H          -2.04891626533489   -0.36390863290996   -0.38404450751892
H          -0.89441136757310   -1.27790823571671    1.19478009635760
N           1.41651322043088   -0.83086229543553   -0.53094199299754
H           1.14306085481797   -1.35838360843858   -1.38866650913468
H           2.42087157692557   -0.79369094080626   -0.39336653277878
H           1.03960305186735    0.17864223783932   -0.66202052339788
H           0.94663764548130   -1.25117396051342    0.30401234483320
