    26
        -50.47071263  Gyration_radius:  2.41584856975 Dipole_moment: 4.160
 S           1.36177172954407    0.71145269286460   -1.32267975295318
O           2.05455286197142    0.30615078501278   -0.12354367786210
O           0.43763560888638    1.81668735746766   -1.13285055985624
O           2.47182695554617    1.23542312305818   -2.32269599183178
O           0.71289964614953   -0.42011635022916   -1.98904301564859
H          -0.95236266045096   -0.07146901629264   -2.10364803366573
H           1.95425853907252    1.66751382343622   -2.99341083518149
O           1.03132282885808    0.46532855896053    2.33081870928297
H           1.60870339731405    0.48363854308451    1.54087694872050
O          -1.74144240556998    0.47434213594645   -1.90958052195192
H          -1.33965085701980    1.33587496795723   -1.72207261422010
O           1.33681659344915   -2.32599699782466   -0.32506557105658
H           1.05885633542135   -1.74228575112065   -1.06857891836077
H           2.13994642170465   -1.89750936757694   -0.00796645081028
O          -2.46874652887875   -0.27558842715334    0.46898009297662
H          -2.23268910096194   -0.02808855656897   -0.47319519089468
H          -3.41066017162491   -0.44931512463584    0.46944297210759
O          -0.84302801058029    1.97313581581695    1.23810319266657
H          -0.36146505362114    2.06066414609397    0.39294915739346
H          -1.55898353215432    1.34560761335255    1.07185322965875
H           0.36994021905227    1.17520856822798    2.15077562084468
N          -0.34549562384377   -1.59123366472141    1.57698276512299
H           0.22354870722656   -0.76562952919638    2.00824063489728
H           0.26765349064966   -1.99152024913704    0.80423402257577
H          -0.56102161979828   -2.29597455488635    2.27305440836434
H          -1.21418777031858   -1.19630054194585    1.16801936967339
