    26
        -50.46415468  Gyration_radius:  2.51939534084 Dipole_moment: 6.938
 S          -0.02470967795144    0.57274797966611   -0.11369167853095
O          -1.00253348363138    1.49032386090314   -0.64541990651530
O           0.64747677336527   -0.19602127098921   -1.27566664400818
O           1.08812702065647    1.25990177510685    0.56722784534363
O          -0.61242456741803   -0.40632611250138    0.80147829446713
O          -2.86197506911639   -0.65709912195576   -0.59878862469170
H          -3.06493512367522    0.27309547781382   -0.73453159474784
H          -2.11781754424193   -0.65969117376665    0.03275536493733
O           2.76088364076820   -0.84697487306719    0.41291026598970
H           2.68053452852165   -1.21386876881439   -0.47084550916211
H           2.26757650614489   -0.00573991255467    0.37587438019472
O           1.07202657963378   -1.82506915946845    2.23274492967096
H           0.29975543783363   -1.56525770693047    1.68231456010643
H           1.83410530461254   -1.74571785383318    1.61723387025552
O          -1.56565004141590    1.61748167748217   -3.23875512291465
H          -0.89888224314745    2.16391672257117   -3.65676718889674
H          -1.40938964034218    1.68769334374249   -2.27313423271080
O          -1.26131770566166   -1.00285419087618   -2.70218259906919
H          -0.09574059441285   -0.57916339452510   -1.88192066516601
H          -1.96939709384214   -1.08314069366903   -2.02192112358015
H          -1.45710368158904   -0.16382716247328   -3.16674841268922
N           1.14341734525943    0.59890629974172    3.05250625611575
H           1.14878288420597   -0.49390208818343    2.88034273506633
H           1.98305630264954    0.91596770083664    3.52657690583362
H           1.10781652374427    0.98635168932078    2.04154740920728
H           0.30831761904282    0.87826696642551    3.55686044548882
