    26
        -50.46180279  Gyration_radius:  2.47250930463 Dipole_moment: 6.960
 S           1.45199280431047   -1.44037860075500    0.39501425726371
O           2.63279737875225   -1.29101374775409   -0.41686868646828
O           1.27243366274539   -2.67523326550686    1.10008792024626
O           1.49858925377234   -0.33617437994535    1.53535414105035
O           0.24963159067108   -1.09391368794225   -0.40899432396597
H          -0.37632016125410   -0.52572681903807   -1.80330191279586
H           1.43108544273654    0.55994312159583    1.14493820826253
O           0.98143220476172    2.05324498474520    0.48359770279125
H           1.61091053918077    2.73311082066351    0.72928307413903
O          -0.79363688087944   -0.07087353807594   -2.57039902529707
H          -1.03680781729817   -0.76533849110676   -3.18488748663623
O          -0.78309631225727   -1.76728779112678    2.55246405215637
H          -0.43355902613720   -1.85283243961985    3.44120121317271
H          -0.09094876085492   -2.15942369140192    1.97583693141599
O          -2.83551138783611    1.00876670372523   -1.10754599939412
H          -3.02943396461139    1.88281352607522   -1.44833565392275
H          -2.15043389930048    0.63058048329204   -1.69954754206802
O           1.90097099995936    0.92463451518977   -1.65919170869462
H           1.28142093069491    1.72113839256187   -0.41301282247945
H           2.26813505251213    0.08884090017604   -1.28516500837709
H           1.18482089574377    0.66765349882156   -2.25077628707709
N          -1.28229849966191    0.37287055632213    1.00734063643239
H          -2.12880259458911    0.61622916900249    0.46317082940303
H          -1.42204377385222   -0.24234815766672    1.82693097058492
H          -0.66785027266284   -0.24468421524530    0.36771096590848
H          -0.73347741464250    1.20540215300560    1.22509553435202
