    26
        -50.46619281  Gyration_radius:  2.5566081532 Dipole_moment: 3.303
 S          -1.47316609047259   -1.73211405888344   -0.37155224363552
O          -1.70071299277001   -0.79040901265133    0.70496948383769
O          -0.58428349695941   -2.82264323777845   -0.04925955411640
O          -2.87594531212793   -2.39995368178937   -0.69390065943224
O          -1.06801583266883   -1.03705436465638   -1.60070315870909
H           0.46635442908586   -0.60694625794998   -1.82861211869048
H          -2.61174920253083   -3.29713587954602   -0.86537472317548
O           0.48452997028692    0.13725297486723    1.87407219208109
H          -0.40185960139994   -0.23057886753050    1.67575709847238
O           1.39204263420196   -0.25808899855106   -1.91055513563188
H           1.66837337133545   -0.45023041212304   -2.80750677264846
O          -1.99567166454811    1.33070729645056   -0.95221582307325
H          -2.35766300895591    1.00572260024953   -0.11785631435516
H          -1.75471959286298    0.49788889306530   -1.41216600989271
O           1.46704980650439    2.82585587268013    2.11901100737611
H           1.79562146207403    3.24388531045850    2.91538260136000
H           1.18684687165801    1.93486370108585    2.37208542458782
O           1.77448550318207   -1.69794098326232    0.50231968957032
H           1.10533408011609   -0.56763738747161    1.56249882395424
H           0.98852271253039   -2.26254453518243    0.35935086978826
H           1.93687485682018   -1.26866437235292   -0.34878383352930
N           0.52364887582346    1.71838045016835   -0.24440996202891
H          -0.48704979856191    1.76950957113830   -0.55979322427595
H           1.07122724372605    1.23070253613446   -0.96989628480000
H           0.91439864128440    2.62182721885421    0.01448115966885
H           0.53552614522185    1.10534560460750    0.63265747721265
