    26
        -50.46619275  Gyration_radius:  2.55641249972 Dipole_moment: 3.289
 S          -1.04542118500343   -1.94761346208555    0.64593406005592
O           0.13949776778694   -1.48305896979002    1.33705470618667
O          -0.79179992134308   -2.71778216427992   -0.54802278286380
O          -1.79548286682077   -2.92963318556806    1.64138865564217
O          -1.97705096049825   -0.83911264197113    0.39824776345355
H          -1.77692051281933    0.12940662408880   -0.87229245277240
H          -2.09985825870259   -3.59816742889623    1.03760868949195
O          -1.58344586585686    0.77753643575526   -1.59871077216107
H          -2.42117550272494    0.94761746741305   -2.03115621107953
O           1.91559773450949   -0.24139731917656   -0.18059359509172
H           1.45857727753090   -0.81483763555401    0.46960167854894
O          -1.03450183116159    0.79125483317994    2.22571533729890
H          -0.38737816864517    0.14424916894193    2.53433094015405
H          -1.60245073297505    0.25190279248659    1.63417984836347
O           2.95159052115313    2.43170978379160   -0.00568218411014
H           2.93518399296108    1.46613019901730   -0.06642835168676
H           3.87287545611689    2.69068242833517   -0.03781320389525
O           0.47758455679758   -1.06738323318205   -2.22087021592257
H           0.05175632686433   -1.79944473898052   -1.73129120577922
H          -0.20437454656547   -0.38672641815458   -2.30314918322795
H           1.59493453708446   -0.57688937196919   -1.05468398968294
N           0.25528658547535    1.78996192312066    0.14293476207150
H           0.78361568871434    2.65972490992455    0.16086782194756
H          -0.24682722457753    1.58263111285177    1.05323496919322
H          -0.42758746058969    1.74362211053061   -0.62855257796983
H           0.95777459327318    0.99561677010504   -0.00185252615284
