    26
        -50.45723610  Gyration_radius:  2.62392661563 Dipole_moment: 7.884
 S          -1.56663912298523   -0.64470354160161   -1.21660240231586
O          -0.18975071661675   -0.28296405425689   -1.57944370417182
O          -2.56557248532760   -0.02051774859041   -2.01924421335746
O          -1.66576741761879   -2.20437833091050   -1.42891281725824
O          -1.75206551603170   -0.43792434646673    0.23551833732129
H          -1.84260354338937    1.27621199714688    0.00080523192211
H          -0.90423809284679   -2.59404194891988   -0.95691616855882
O           0.27264277097632   -3.26619451270453    0.14827392985880
H          -0.06045279481477   -4.15171942316634    0.30565479365100
O          -1.82159176675219    2.13261454101973   -0.45947950936523
H          -2.16818303977949    1.91364165134122   -1.33210576502951
O           0.49850386936685    3.39025056305116   -0.12477955327668
H          -0.32109336551205    2.88531130175710   -0.33861292739135
H           0.22679448148654    4.06233715836591    0.50205923329269
O           2.67707898585571    1.96490332013843    0.27921411239531
H           3.20470205832454    2.17271748550566   -0.49409502225263
H           1.85804182624235    2.51440544466918    0.18583779342407
O          -0.25295299685163   -1.39344950745925    2.04096204549801
H           0.08627950797445   -2.74591229818802    0.95219269524054
H          -0.65948564181760   -1.24708977274991    2.89598884679700
H          -0.89495709425340   -1.01106172736694    1.36319703645048
N           1.59350116320864   -0.46878590781586    0.22535512566166
H           2.22886878851887   -1.22215784482100   -0.01543644023911
H           0.83379628387872   -0.38511585025109   -0.56308678960683
H           1.09633018971679   -0.69553836059306    1.09887022859307
H           2.08881368899892    0.45916170292225    0.29478590273124
