    26
        -50.46669216  Gyration_radius:  2.48640189425 Dipole_moment: 2.328
 S           0.16660998337443    1.73551347637468   -0.25771874238807
O          -0.50503476699769    0.60690872185959   -0.87649120362239
O           0.65672417869627    2.73259649896723   -1.15882167808746
O          -0.99176575630917    2.46104388850249    0.60918260969195
O           1.13156547678689    1.28619048693160    0.74894467443488
H           2.31413360283912    0.90753412525989   -0.53498352047088
H          -0.87374965518315    3.38082438205036    0.39173160913870
O          -2.91225938604040   -0.48158455242546   -0.37570173780908
H          -2.14363540751127    0.03211547042120   -0.68833434313217
O           2.54072997840623    0.71518454236826   -1.45705150717236
H           2.09804494580139    1.41265735408675   -1.95195741302919
O          -2.24872320836793    0.33722358466430    2.07182131369643
H          -2.71375439495801   -0.00947271199625    1.27657024289643
H          -1.96568387040688    1.22312227653924    1.81360474672611
O           2.37088025667144   -1.99951812315860   -1.50898832868918
H           2.49342902315540   -1.02889831250354   -1.50494994121675
H           2.63026763885799   -2.29622070713107   -2.38243380522980
O          -0.14055482615081   -2.02814050112244   -0.57196858079307
H          -0.31569442794997   -1.12249191677464   -0.89255963443919
H           0.76242757400409   -2.22095421838970   -0.90014584470038
H          -2.70998048141782   -1.39731456120827   -0.58370348976353
N           0.08094245203863   -0.87349274909255    1.77502831697515
H           0.54447796399304   -1.32886378981204    2.55311922848139
H          -0.88083373582292   -0.50845509611761    2.03689077382968
H           0.61733296992002   -0.02265722868039    1.44445160893670
H          -0.00589615743775   -1.51285031959563    0.92446464575628
