    26
        -50.45909897  Gyration_radius:  2.47743358382 Dipole_moment: 8.425
 S           0.35837862802829   -2.43639459367832    0.27334928206243
O           1.60687489162094   -1.96380929561977   -0.35286572893495
O           0.51368971392145   -3.56823334345747    1.11877846162636
O          -0.29288948191264   -1.28410649662207    0.94319481367279
O          -0.59987847358300   -2.81150180907159   -0.91329980380968
H          -0.67990071995217   -1.98494182629273   -1.42198286698579
H           0.35195984303934   -0.16161125457710    1.75808216049273
O          -1.17848638113490   -0.46754945836206   -2.15777558394159
H          -1.76510549105635   -0.67918861125256   -2.88530490796164
O           0.75620940217341    0.64057794406869    2.21801330818410
H           0.77159383639670    0.41707878408924    3.14941725457677
O          -0.93892613799572    2.28118439634506    0.87353645892740
H          -0.34176165884871    1.73721434595683    1.43007620110802
H          -1.11610068525848    3.08995338520320    1.35503419000340
O           0.31679414939552    1.74265316453429   -1.54845287307929
H          -0.16949214752111    0.98970154046453   -1.93196153165540
H          -0.23143836380346    2.06427410726069   -0.81298689002353
O          -2.40382625284533    0.01427210174887    0.07092134604412
H          -1.76237941137340   -0.26715091605636   -1.36558091899543
H          -1.75937874900668   -0.58459905658000    0.51060141334369
H          -2.14119713933799    0.90254096442101    0.35216947832386
N           2.16705507833439    0.49041253336924   -0.13230518007952
H           3.14108800074930    0.67057505229127   -0.34545888440642
H           1.94017763032811    0.72268914567288    0.84332164294558
H           1.51826482373804    1.03293989599825   -0.77304982103651
H           1.93867512589179   -0.58698069985941   -0.25547100041924
