    26
        -50.46836842  Gyration_radius:  2.48092007823 Dipole_moment: 2.815
 S          -1.74020297965470   -0.44153506732091   -1.35817292571078
O          -1.82324866384985   -0.31600811039920    0.09757424424556
O          -0.63274117137524   -1.28022465236766   -1.75637384180749
O          -3.07576304193930   -1.19580278853620   -1.77191742840588
O          -1.77093629766606    0.83350566536524   -2.04401461520144
H          -0.38807630356419    1.54402348626271   -1.66852838209980
H          -3.08717819346468   -1.05002291587808   -2.71163937096750
O           1.60818505678086   -2.07065048897725   -0.56777388234814
H           0.88746827360609   -1.91139240844468   -1.20907300218688
O           0.43465241200552    1.99979279390443   -1.35689043765119
H           0.69503002991430    2.59114680491567   -2.06513406660265
O           1.09410089250038    0.68859645505340    2.42625835296003
H           1.26605884897238    1.11173713075190    3.26758809871558
O           2.36715489521857    0.44653767856149   -0.11988173907976
H           2.13697662382576    0.58519830516947    0.80881531977362
H           2.09051185732796   -1.21273716761635   -0.51933908218680
H           1.74071906477132    0.98771262957721   -0.63011565102585
O          -0.76398721976798    1.94039434424195    1.11354332386853
H           0.37979147007637    1.23132875158772    1.97598053761801
H          -0.31930092489781    2.25573283044790    0.31033907541589
H          -1.32652256861260    1.20535018131544    0.80226503358340
N           0.03976860596981   -1.60797731440345    1.42449858983285
H           0.74499705187641   -1.92542787982063    0.65139530624181
H          -0.77448898839459   -1.17053131516474    0.90842378950931
H          -0.26934804757724   -2.37943190701061    2.00401846526370
H           0.48637931790061   -0.85931506122488    1.98815428824107
