    26
        -50.45316411  Gyration_radius:  2.76369436734 Dipole_moment: 6.493
 S          -0.89517208230646   -2.77240227383339   -0.83968377541055
O          -1.50988866295266   -2.41885075978219    0.44125131296932
O          -0.67934788612845   -4.16656312011229   -1.04390291075417
O          -1.99407595949824   -2.33324586274767   -1.95286159656559
O           0.23858657952853   -1.89317819388898   -1.11992551267801
H          -0.44655501243829   -0.54701436722939   -1.74137666373514
H          -2.39908315795179   -3.17407664423196   -2.13737310271533
O          -0.95506014041367    0.28687762210178   -1.90336847184291
H          -1.70043850952457    0.01203590668596   -2.44047482538763
O          -0.05154436761200    2.68083265793311    1.33020350544081
H          -0.02838827240587    3.60593889253915    1.57661554009613
O           1.78084596614500   -0.25731972385836    0.34775481018588
H           1.49531166539233   -1.01777008582144   -0.19069608968214
O           1.16874368173059    1.91970418889408   -1.06782105064885
H           0.49286817952466    1.53046176400757   -1.63845350353366
H           0.68823789095963    2.33632715884265   -0.33196670724145
H           1.79157259732282    0.50991675384483   -0.27268231109449
O           1.88032954495257    1.26870788965502    2.59927900480046
H           1.99583101680085    0.57564852942813    1.92525824007326
H           2.75628065746884    1.61185950944562    2.78153109360364
H           0.63282917305703    2.23241009056071    1.87117975576752
N          -0.87102027836694    0.02326059530288    0.79040399355479
H          -1.21754264049761   -1.00223191165874    0.76989829683000
H          -1.11089760608804    0.42693327653955   -0.13396483462477
H          -1.23944563594568    0.58691994415636    1.55004409092247
H           0.17702326925427   -0.02518183681931    0.83113174163589
