    26
        -50.45316423  Gyration_radius:  2.76363300603 Dipole_moment: 6.493
 S          -1.35330628383354    1.09878551184385   -2.48085285364752
O          -1.71920398569184   -0.30683967420408   -2.29730294151770
O          -1.34827740369894    1.55242724154898   -3.83217825205501
O          -2.54253493573233    1.92757563461527   -1.74686231043303
O          -0.17265324547833    1.42567154798004   -1.68317380682867
H          -0.76715142090536    1.70480529451221   -0.18803563323641
H          -3.07195332931256    2.17279177765396   -2.49828229200217
O          -1.18469339701235    1.64628856026821    0.70778770013073
H          -2.03116882902071    2.08538414586743    0.60649481559155
O           0.48548046522797   -1.72136252544597    2.40026607698400
H           0.66174088373703   -2.10145208356187    3.26139134867199
O           1.76633223655919    0.00187158078842   -0.49017740822553
H           1.31001310014997    0.59657748799793   -1.11291118333872
O           1.22950042430745    0.93644072749630    1.95018833816789
H           1.78073648679904    0.48755819611912    0.36870782570168
H           0.43248369769390    1.43913047089663    1.73571544089846
H           0.92040155074363    0.07463167075246    2.27828362162462
O           2.39157646182075   -2.41050044465904    0.60381412976557
H           1.18105409742094   -2.06246248414737    1.79861412966485
H           2.31731064541758   -1.62684075536175    0.03078604382584
H           3.32113180104543   -2.49494776238044    0.82077439551092
N          -0.73265384611605   -0.91976291794753   -0.02886072258924
H          -1.20490535991194   -0.79862771407731   -0.99542196823279
H          -0.90919833505516   -1.80897180627512    0.42788918670777
H           0.29507537644668   -0.77511065927787   -0.18778145909043
H          -1.05513685563391   -0.12306101109723    0.55112776804302
