    26
        -50.44947500  Gyration_radius:  2.50086921642 Dipole_moment: 4.982
 S           0.76565691221008    1.09789091723202   -1.24662993801471
O           0.05792691349364   -0.06240939536798   -1.73696749406191
O           0.35038111018913    2.35296945110607   -1.77204837675524
O           0.64898692489711    1.10816659501410    0.29494831394585
O           2.27024618505458    0.88545470094324   -1.47384624935289
H           2.52388227192280    0.05000850062244   -0.96884560866921
H           0.02388276085310    1.91623132423814    0.53320765379270
O           2.80214720147272   -1.31535623754546   -0.25234440076702
H           3.56723676572757   -1.71394460739538   -0.67330635037167
O          -1.88239609531418   -0.83469875070211    0.01418642246817
H          -1.30949464856321   -0.56517260241272   -0.72230797963034
O          -0.92556648240056    3.00786358436684    0.55222149516356
H          -0.75827762981183    3.29081715139370   -0.35796996653190
O           0.64869950632905   -2.57834657590026   -1.07293905487843
H          -0.05627243863305   -2.77368230015096   -0.44877384760212
H           0.37030173215434   -1.75874757395142   -1.52553720314383
H           2.02213335038604   -1.87938096612160   -0.50088134918962
O          -3.07312823064321    1.49065881156549    0.48311776698449
H          -2.71020402779077    0.59331934283743    0.27708518067036
H          -3.64638316557423    1.38281280847740    1.24327348510744
H          -1.80193669396493    2.53986462700658    0.54554672139264
N           0.12121627086422   -1.35441949700708    1.86161289068035
H          -0.12547079130072   -1.18785307272497    2.82953853313193
H           0.59533693586106   -0.52242086056307    1.52108985001337
H           0.79587022094225   -2.10982984340190    1.84777630345117
H          -1.27477486837634   -1.05979555151274    0.74879318216294
