    26
        -50.45319308  Gyration_radius:  2.55947818955 Dipole_moment: 7.124
 S          -2.31700634299558    1.19165742557113   -0.27278627494031
O          -2.90254140754398    0.24927643290497   -1.22322623176473
O          -3.06616390779139    2.36691412070793    0.01149603793657
O          -2.25079633771810    0.30579148311856    1.07357598824778
O          -0.90689440289101    1.44041197104319   -0.60682432203287
H           0.05676099382767    0.64716173540245   -1.60054850043105
H          -2.00236718070057    0.91563487744943    1.76654559456294
O           2.96245698822580    1.29980806797304    1.03285080106259
H           3.50140822456120    1.47196944131257    1.80509976161231
O           0.34027674509490   -1.55346382091018    1.24006288040559
H           0.57606202032027   -2.24858762871127    1.85455852913865
O           0.57250765720341    0.02931649614920   -2.18857588206868
H           0.67729449328406    0.48804984295831   -3.02271309460862
O           2.34231870023269   -0.95904085727944   -0.28548479214735
H           2.73444030340384   -0.17553402755693    0.15408923301530
H           1.15939356757745   -1.36914948740435    0.68181503624095
H           1.89264323929054   -0.60321874898739   -1.06874879625612
O           0.36939485651870    1.23812796443296    1.70444360452043
H          -0.04017559543113    1.47679995976755    0.84831999445918
H           0.27767018047519    0.27387399797136    1.75449888628979
H           2.02512210725018    1.42172902841382    1.31349086308549
N          -1.20054024079157   -1.61557072890431   -0.99290459424335
H          -2.00829032949365   -0.87329661636572   -1.06249563672879
H          -0.80806300004560   -1.61618623781570   -0.02586223936301
H          -1.52340746305866   -2.53937725180418   -1.26002454820758
H          -0.46150387887201   -1.26309745972606   -1.63065228768928
