    26
        -50.46245488  Gyration_radius:  2.43498333444 Dipole_moment: 5.461
 S          -0.77713573459722   -0.26900473895770   -0.65812021672764
O          -0.76454708336489   -0.13691178624002   -2.11857141775316
O          -1.73408191450684    0.61017676010507   -0.02333284094619
O          -0.93017752215947   -1.66347876931776   -0.25595256967635
O           0.66315709848513    0.12772319122970   -0.21364371221056
O           1.47799894139981   -2.58579366056935   -0.58499728337703
H           1.88336814017176   -2.26000197234170    0.22369016518110
H           0.51317015177771   -2.39676749035423   -0.46831950307044
O          -1.12483198654534    0.92301671154671    2.60311764231035
H          -0.74859560595947    0.03898714352311    2.76011963704832
H          -1.58945599786299    0.83711189857494    1.75281146672172
O          -0.32793960722022   -1.69051292773888    2.32611436716267
H          -0.58293861420270   -1.69814979699515    1.37976001347403
H          -0.89246311321029   -2.33471776829447    2.75716266777039
O          -1.18706936508300    3.17902179680271   -0.41464416723517
H          -1.92422335707515    3.68754599273258   -0.07137677743729
H          -1.47963380683929    2.24399269957303   -0.41178089384031
O           0.72264654609635    2.18468849911623    1.20633461873070
H           0.12516035606686    1.85313599034955    1.92372062005377
H           0.71717606347785    0.98864588193739    0.38076446316740
H           0.16747538063652    2.77670802772903    0.65814395995054
N           1.59320379165884   -0.88556752208970   -2.58084358820094
H           1.77160937103580   -1.27428993463818   -3.50137593017402
H           2.20514366070088   -0.09885784036297   -2.38488311514557
H           0.53544681240893   -0.53607343551831   -2.47562931342125
H           1.68753740470471   -1.62062693980175   -1.80826830235510
