    26
        -50.45319311  Gyration_radius:  2.55950278872 Dipole_moment: 7.124
 S          -1.78106803930524   -1.29779705477113    1.41647597206973
O          -0.89218088175068   -1.71910440138486    2.49660378468471
O          -3.10613192523753   -1.81465995801224    1.43603276944859
O          -1.86440478469707    0.29473982421861    1.65841559220685
O          -1.10147941915570   -1.42726977269753    0.11910600840228
H           0.44491506168888   -1.65732632073369   -0.19992063463940
H          -2.54387306383511    0.60677655279715    1.06273576528267
O           1.43687082974355   -1.72751616136774   -0.26676048768673
H           1.62019251812301   -2.63930500501511   -0.49548734988774
O          -0.05063603020662    0.77310668726829   -3.30620428538953
H          -0.33063055896990    1.43514093343866   -3.93848629310108
O           0.56788712819923    1.90234893976948    0.35437772730658
H           0.82866582748538    2.81998199154059    0.43414521605103
O           1.93397847880566    0.71734603363342   -1.49449583036461
H           1.13210093697607    1.50269585832792   -0.37945411613968
H           1.89750523638174   -0.20774638174747   -1.20270273878016
H           1.33912880854649    0.75676907695184   -2.27267364452576
O          -1.60514678399937    0.85527603893566   -1.12541850252487
H          -1.00714228644380    1.37631162084379   -0.56715289836741
H          -0.73317747831529    0.75986295475804   -2.59475258940792
H          -1.50201086850630   -0.06216389241591   -0.80104666446490
N           1.08607694987004   -0.23071172153348    1.95046839216749
H           0.74990760765780    0.65311640823636    1.50901098111805
H           0.22468534282011   -0.83057389785069    2.27706679189633
H           1.53836145584767   -0.79885007610651    1.20895484304469
H           1.71760593825646   -0.04044827699902    2.72116217162568
