    26
        -50.45288101  Gyration_radius:  2.7171687367 Dipole_moment: 5.358
 S          -2.29395779114274    1.42498207055724    0.97362605273753
O          -2.41022112209260    1.22793666415016   -0.47528692157979
O          -2.94604183312503    0.41586338692289    1.75256104113377
O          -0.87942794550396    1.59866140986826    1.33749576268560
O          -3.00029616361382    2.81354488636768    1.27698592383782
H          -2.59605049439325    3.42128735375650    0.66372614717948
H          -0.58764289043741    0.04868797262370    1.97526631061366
O          -0.62237578166653   -0.93318046161863    2.02699051987092
H          -1.51347766552322   -1.09114710939814    2.35945110817185
O           1.48941644268397   -2.24407983163261   -1.43627691022366
H           2.11459368922424   -2.92942085222291   -1.67523945787281
O           1.30949761218917    1.13519289528345   -0.12485325944967
H           0.61545324918355    1.53200949061089    0.43945801275282
O           2.05200905019790   -1.12425950028465    1.10043688433407
H           1.29976530921864   -1.25682706438318    1.69011317022549
H           1.88867587499289   -1.67525471379329    0.31725638302666
H           1.78492988033924    0.49499721173415    0.45113686452543
O           2.05005212526207    0.16849539189851   -2.57222563848972
H           1.76496978150611   -1.44379985913783   -1.92453516543852
H           1.70656820852886    0.69947559657161   -3.29172881217125
H           1.97330287082847    0.70716670354489   -1.76637560147301
N          -0.64926859228724   -0.62937382642673   -0.65083399951823
H           0.20307175418091   -0.01097033769604   -0.66681730296370
H          -0.57941864086897   -1.36549954824834   -1.34870410383256
H          -0.69396234408676   -1.02181895616824    0.31805947193332
H          -1.48016460372394    0.03733099711845   -0.74968646998855
