    26
        -50.45708440  Gyration_radius:  2.51497549266 Dipole_moment: 8.097
 S          -0.94270814561275   -1.12628185862003    1.71220681847572
O           0.44706579637960   -1.53498884851112    1.94604417898195
O          -1.03881008119356    0.22660172075480    1.23128054414578
O          -1.63080535797432   -2.08782597444385    0.86337591872564
O          -1.65360241248768   -1.17531615440548    3.12275067037695
H          -1.57605162047955   -2.09432175263443    3.35801614234507
H          -1.19240060807190   -1.79165985867433   -0.61235435946630
O          -0.78088500697725   -1.65387522413544   -1.51275283967570
H          -1.24461967058751   -2.24503133704653   -2.10856054788552
O          -1.65626356683343    2.41510616423201   -0.30014799979341
H          -1.80992828832999    1.62704833212383    0.24170409495999
O           2.00698789823933    1.22149798347086   -1.01712722599142
H           2.62559449428534    1.65198529133228   -1.60770999451419
O          -0.30170364565431    1.07192210939711   -2.13388247373579
H          -0.60943722379189    0.16782434060931   -1.97506875214249
H          -0.87476654530733    1.64669117665316   -1.56423014243603
H           1.10804291353292    1.23603244377443   -1.48464757466760
O           0.67257634248928    2.40704147667054    1.22689480710917
H           0.13740335395124    1.63097045022704    1.45357547299729
H           1.29775452880296    2.09941535335126    0.55862485814441
H          -0.92985753748423    2.86303115233171    0.16437984432126
N           1.61592255387009   -1.31967282323017   -0.32363766501115
H           2.38730503895926   -1.96832023123817   -0.43861769371514
H           0.82102340788719   -1.55177044751952   -0.95497357309148
H           1.20947414696249   -1.38460721611838    0.67955200903447
H           1.91268922542135   -0.33149626835501   -0.52469452750586
