    26
        -50.46911925  Gyration_radius:  2.40711582278 Dipole_moment: 4.347
 S          -0.61408568522792   -1.49974343561173   -0.70045713789114
O          -1.14397119202130   -1.96397361673204   -1.95487586235223
O          -0.18416889749596   -2.53712724096019    0.22515736121027
O           0.73429202455340   -0.70764457871203   -1.00536146309998
O          -1.49134307103790   -0.52344948738534   -0.05065247628178
H          -1.17233228070753    0.20017053736134    1.27109928828362
H           0.44641744508059    0.13556335682626   -1.43027571171677
O          -0.89655938330298    0.64456590291968    2.12916342265440
H          -1.70843557009600    0.86461309312394    2.58718035351639
O          -0.14578328855255    1.53111062430265   -2.05049856159689
H           0.24055165176127    1.77623293045788   -2.89351556038218
O           2.72885617049602    0.20533522886465    0.67630290618552
H           2.51038636698668   -0.21103626653285   -0.16701428190913
O           0.89100978629188    2.13727783995308    0.56302286503010
H           0.49206948990281    2.09247672239657   -0.31628718410584
H           0.22751109151549    1.78690297124276    1.17708662753733
H           2.20948667921600    1.04557230064769    0.67473447714110
O          -2.37072571119324    0.27811481049519   -2.53066033506090
H          -1.98044446998018   -0.62634323258480   -2.48775851039560
H          -2.85937236888320    0.35224193086687   -1.70549903276860
H          -1.05501916116040    1.16265282781334   -2.25661777317522
N           1.03891167344177   -1.23962678353122    2.07860289308985
H           0.55859258835131   -1.85502217502768    1.33038138812266
H           0.33397329102846   -0.54609943355071    2.39059170437851
H           1.38178665926882   -1.80216368812648    2.84945102077552
H           1.82839616176623   -0.70060113852545    1.59669958279111
