    26
        -50.44980669  Gyration_radius:  2.56462791565 Dipole_moment: 6.680
 S          -1.07017955073533    2.44266964271443   -0.44667509980626
O          -0.01633765700343    1.75934169317097    0.33913404825693
O          -1.33498083439144    3.77418477315245   -0.00998823505706
O          -0.42902679543447    2.57764510535797   -1.91317357818129
O          -2.20399286871153    1.55642421909024   -0.60304289169075
H          -1.74552919018336    0.35510495139420   -1.48598691297562
H          -0.18505613395170    3.49664549682486   -1.92510868088896
O           1.62373774887383   -2.10790599146574   -0.07418162145085
H           2.09650110212484   -2.70433792096413   -0.65527674592212
O          -1.42942197307462   -0.43777494035825   -2.00515912479052
H          -2.06146573549372   -0.54831967365093   -2.71651047219752
O          -0.76091651128651   -0.08922763898451    1.84046608334417
H          -0.54969881016536    0.72984140522789    1.24222154327248
O           1.20397459989803    0.11438871701670   -1.36191973727107
H           0.89630214001925    0.80780353377686   -0.74381319161859
H           1.54440154970752   -1.24216216452405   -0.57118698163918
H           0.42391655005616   -0.07108863177945   -1.90672193624714
O          -1.09270802875975   -1.96063131538244    0.18234104950351
H          -1.31817972347393   -1.50431382541592   -0.65659855030450
H          -0.15284478052061   -2.21430833241458    0.10034295707460
H          -1.02778796417482   -0.86159323168233    1.18916697098371
N           1.59832985455363   -0.79964647913811    2.48564073080464
H           0.19580224932017   -0.37752170675769    2.20900765400128
H           2.20282309081156    0.01101667801332    2.45270229873067
H           1.77196897227786   -1.30651592093170    3.34292029402980
H           1.82036868014275   -1.39971843221847    1.69140012961950
