    26
        -50.46926236  Gyration_radius:  2.54948992953 Dipole_moment: 4.573
 S          -0.36283199623643   -0.40857345842570    0.12198261780632
O          -0.36006956573003    0.67541224036466   -0.88265507733414
O           0.72088416072547   -0.03127332163196    1.16998285129124
O          -1.64207794211979   -0.52484245668349    0.77524936530164
O           0.11407405692612   -1.64740496582131   -0.47977631258337
O          -1.98160247342800    2.28337926705870    0.50184071021230
H          -2.67034426128519    1.66157517396607    0.75455946459507
H          -1.42340730307548    1.79308251056292   -0.12956273268883
O           2.71306837741313   -1.18536053942688   -0.36106964042402
H           1.81511258094746   -1.58206987173159   -0.32810233043877
H           2.78071532186303   -0.69080202642710    0.46095452143638
O           0.19843857859951   -1.94231012844544   -3.11885480898377
H          -0.69786143706349   -1.91077705901026   -3.45673097279847
H           0.11798270718062   -2.01196195234956   -2.14167202799601
O          -1.99465390325790   -0.07261865472973    3.37196381793282
H          -1.97640879520454   -0.30762459075677    2.42045057586290
H          -1.76613262336098   -0.87181440687526    3.84817746367562
O          -0.29628367658396    1.83594990442970    2.52121675270272
H          -0.89243925918253    2.24051967299690    1.84960567435030
H          -0.88918045449853    1.30283408868127    3.08829858179519
H           0.36083201159433    0.75120769538786    1.73595333639929
N           1.65613670672256    0.15511727293731   -2.37421487597949
H           2.09832206505514    0.87889477746638   -2.92942126612772
H           2.30854837673021   -0.29586679535325   -1.67617554262669
H           0.82578131574882    0.51652519780565   -1.78818705252397
H           1.24339743150852   -0.61119756397052   -2.95381308285900
