    26
        -50.45911170  Gyration_radius:  2.43615992286 Dipole_moment: 3.765
 S           0.82342648928350    1.78141551688965   -0.91179565373285
O           1.08476129154217    1.44881315675742    0.48051461312264
O           1.16324668344570    0.68614468092515   -1.80359667875795
O          -0.51838565786485    2.28958286322154   -1.10725760042535
O           1.79846400059619    2.97023246143666   -1.29481289566023
H           1.30030422778120    3.73423997377138   -1.02434630118091
H          -1.27595280849466    0.88096807733111   -1.50581453777989
O          -0.67253930825341   -1.62525097319596    1.98324165423868
H          -1.13028683708879   -1.99465068192856    2.73837184503188
O           1.71784044716836   -1.60000717342419   -0.92978796030520
H           1.59459931503608   -0.67581420184716   -1.36245722638704
O          -1.68855151485314    0.01676815120880   -1.72643186416225
H          -1.56471424893219   -0.08502832070625   -2.67222667487457
O           1.90094416206860   -0.86104645896884    1.45463400536388
H           1.71229959382929    0.07786320411688    1.23229849214892
H           1.06668346634402   -1.20994628626686    1.82271750489784
H           1.93235547505940   -1.38018518915116    0.08042434571897
O          -0.68781632552311   -2.23469107455313   -0.66005276261246
H           0.73199169231132   -1.98515909190777   -0.89455019807499
H          -0.78002585089571   -2.15941901322196    0.30999186297247
H          -1.13691972127564   -1.44515762022743   -1.03927831022289
N          -1.54392347987304    0.76503526778881    1.36982939592314
H          -1.05583126321265   -0.70329221057157    1.82000687070940
H          -0.66173306891410    1.17870707157892    1.06613569548750
H          -2.13803090049342    0.72232101210475    0.54993755261669
H          -1.97220588880402    1.40755685884027    2.02430482593879
