    26
        -50.46365336  Gyration_radius:  2.4175851966 Dipole_moment: 9.112
 S          -0.83188141398442   -1.12915652258736    1.40431242074697
O          -1.42913248292266   -0.48275049070539    0.23632736934187
O          -1.37680451220320   -2.40068406701247    1.73357136979541
O           0.64760989782233   -1.16739113471570    1.24006288560236
O          -1.06827886282468   -0.13332234733595    2.60083691973398
H          -0.74088327916097    0.72950810092024    2.28706330383078
H           0.63433122954106   -2.60065600030186    0.24760758584547
O           0.34824136000389   -3.25915069451976   -0.40694631148668
H          -0.42447543826481   -3.66326736275067   -0.00140385945740
O           0.81183838415937    0.89023281763775   -2.24825672065502
H           1.26036029610339    0.92451329904987   -3.09368469366523
O          -0.18524153627775    2.27875490642105    1.62123565960695
H          -0.57624137034475    2.97166394355317    2.15546805719654
O          -0.50313575125426   -1.31539447713650   -2.08704272821489
H          -0.05997725046905   -2.12398077998098   -1.76502123498487
H          -1.04224462357341   -1.04485018771325   -1.31506617614542
H           0.31080063453282    0.01045843604186   -2.23701882274193
O          -1.32923595295991    1.97794328709025   -0.67778205625027
H          -1.58225811702184    1.06840942575490   -0.40900862695310
H          -0.68592066423335    2.27295829109405    0.75006460454941
H          -0.70399709454819    1.84979900831846   -1.40385323651173
N           1.73477979002003    0.89297645203526    0.26360961550027
H           1.29285568261384    1.65646991090902    0.79201748045667
H           2.74077387964944    0.88603292641446    0.38844830574857
H           1.28749502419583   -0.03553943445793    0.67502628032888
H           1.47062217140287    0.94642269397764   -0.75056739121697
