    26
        -50.43832359  Gyration_radius:  2.67111632565 Dipole_moment: 8.976
 S           0.06898942412635    0.97985230424781    2.73285621424463
O           0.56649741668604   -0.32700748348920    3.06395357395033
O           0.28015533281140    2.04016919494390    3.64673128431261
O           0.64672535932744    1.34977222080803    1.32567730008435
O          -1.45730851608276    0.88527693187593    2.43526526219684
H          -1.59456055725246    0.12138069347942    1.82686074060775
H           1.28706808111811    0.58832649239397    1.09656260776709
O           2.13706050919888   -0.66005491979660    0.92421076032977
H           1.92535531024399   -0.91921223490210    1.83484320910472
O           0.01514336904522   -0.20390582127640   -2.60852826295079
H           0.32587592496166   -0.33704246287408   -3.50473166889011
O          -1.94401837966930   -1.08786628264879    0.74553261607956
H          -2.72099480800827   -1.52796135771328    1.09549275847600
O          -2.50429269164666   -0.04226152238807   -1.62409609732210
H          -1.60881527955608    0.00305355065581   -2.01520882087486
H          -3.04359326380567   -0.54652636288815   -2.23576312022724
H          -2.21797561015946   -0.63058135429117   -0.08930894394991
O           0.38235489481956   -2.01166477090958   -0.52774419589758
H           1.59122413298208   -1.25836317230789    0.35228942638652
H          -0.39248722141478   -1.85188453096100    0.03057796460303
H           0.25296114183668   -1.47012440678426   -1.32460136409106
N           1.68236048024742    1.46579657243541   -1.42570926903997
H           2.15057473354132    2.22276221421507   -1.90850889618298
H           0.63263770332450    0.47030235599808   -2.18650839798636
H           2.39240063379658    0.88064669398074   -0.99816416883632
H           1.14666184952882    1.86711747820022   -0.66198051189530
