    26
        -50.45091459  Gyration_radius:  2.53863145418 Dipole_moment: 7.507
 S          -1.55466902622751   -1.11334692578643   -1.55680037452804
O          -1.71611322829726   -0.69703012460544   -0.15654885315978
O          -1.14718417675177   -0.04828960256933   -2.42462916981977
O          -0.70851479029821   -2.30016724951054   -1.62278262852623
O          -2.99795465793503   -1.57460966623244   -2.02778041686039
H          -3.18834926600651   -2.31915833019530   -1.46544361992434
H           0.74738292349837   -1.74544816462793   -1.42502983349035
O           1.63488167119665   -1.40610079175909   -1.11997399667177
H           2.28681819029169   -1.82533863701716   -1.68383118312184
O          -0.82342805191486    1.96891143979508   -0.72077364192966
H          -1.03287786941247    1.34994093545686   -1.44557403274987
O           1.68829553287850    1.21634225795316    1.97353356498135
H           2.55174713714662    1.37014495099280    2.35655955408250
O           1.75344130428829    1.39433949506960   -0.58874599378313
H           1.75198878822234    0.49988704421629   -0.95872988570406
H           0.83732454513567    1.74075302990154   -0.73712115511751
H           1.78250343314311    1.37443632696915    0.97997818962782
O          -1.07352697823611    1.60977211371768    2.14180262184236
H          -1.19721424157243    1.56055871563110    0.07382622750769
H          -0.11300533692363    1.70949900259778    2.19686371597138
H          -1.43353847968232    2.49433382323974    2.06093235721822
N           0.40053557044235   -1.06152053656918    1.25541297763343
H           0.25111878216889   -1.79518416917016    1.93907981889570
H           1.05414587992588   -1.35751551500955    0.50641932933554
H          -0.53350843141124   -0.84539078928924    0.74604272999705
H           0.77970077638358   -0.19981862320459    1.70331370831620
