    26
        -50.44282345  Gyration_radius:  2.59556856734 Dipole_moment: 6.741
 S          -1.37766133939224   -1.13770785971953   -1.32956686470455
O          -1.81520454017921   -0.93887426855906    0.03544318573097
O          -2.32867763115890   -1.61040848387509   -2.26092156052819
O          -0.73831896251281    0.19381116765776   -1.81332739239063
O          -0.16788648538973   -2.10833943086422   -1.31616809144328
H           0.41346807966625   -1.92836637758098   -0.52681853482094
H          -0.82672944913285    0.85323739176440   -1.04610557780398
O           1.28580882445264   -1.78949192687495    0.82227505563829
H           1.93026548583943   -2.49799337766478    0.87162913439396
O          -0.95754374635984    1.57503056535936    0.31160072415386
H          -1.50279393353671    0.84345849764971    0.63544774355114
O           1.80991802827867    1.53695777893810   -1.76621707087299
H           1.17103244712386    0.95402207304202   -2.18954144093920
O           1.51556759235435    0.98918124426382    0.84260837410334
H          -0.03044904656868    1.40927774913953    0.65966034728842
H           1.56961841165280    0.02619192191175    0.92044644556753
H           1.82491650123919    1.19765871868950   -0.06856056330337
O           0.25253461375636    3.70217480145486   -1.11040287068359
H          -0.40751193103852    3.16420128405655   -0.65319233928462
H           0.68736186429457    4.22943879581337   -0.43743280235680
H           1.37348787623522    2.40882659255837   -1.72835433470659
N          -0.79799925904881   -2.26338992491244    2.33699710587923
H          -1.10746179475508   -3.21539246306330    2.48569811631574
H           0.55710906250418   -1.99453821511628    1.49251348525423
H          -1.40500945421873   -1.84525853400832    1.63059223813870
H          -0.92784119442984   -1.75370773992604    3.20169746766178
