    26
        -50.44282352  Gyration_radius:  2.59552755548 Dipole_moment: 6.742
 S          -1.25085898064865   -1.52153273012096   -1.03927801064966
O          -1.70934906985213   -1.08969558721965    0.26359072368589
O          -2.14576386989173   -2.27162809605217   -1.83416367683002
O          -0.75240321832489   -0.26118616563952   -1.79994917803834
O           0.05316752781991   -2.33967082361234   -0.84958409467015
H           0.61093576123813   -1.94248267714693   -0.12534161122824
H          -0.90869556245190    0.53029864165307   -1.18308820266075
O           1.46140569348998   -1.44052033462038    1.14952380333873
H           2.17486614374412   -2.05506846838465    1.33132880654632
O          -1.11432994603839    1.50036181098339   -0.00089168600393
H          -1.58203878236925    0.80075806362519    0.47778815009766
O           1.64491833314234    1.31154925744898   -2.08097390389336
H           1.06968836858485    0.59244328463421   -2.36234936428232
O          -0.12676646140229    3.39796388777016   -1.85460164808229
H           0.25079178032406    4.09412410511505   -1.31349185129236
H           1.12137566643582    2.12398414098385   -2.21497678868874
H          -0.72895549116749    2.90282435854759   -1.28336056476853
O           1.40510112714497    1.29024880611646    0.59008085352713
H          -0.17553280356367    1.50475878485552    0.35522866376690
H           1.55772495662047    0.37489508123717    0.86427664813006
H           1.69265748499748    1.33511118638402   -0.35049021499408
N          -0.56621770653031   -1.79911332245268    2.76856962856793
H          -0.75007820875623   -1.13752426985590    3.51207700556779
H          -0.77638555492132   -2.72613250677917    3.11587803664481
H          -1.21135495201149   -1.59981188938383    2.00280817364121
H           0.75609777432684   -1.57495456829007    1.86139030253680
