    26
        -50.46596112  Gyration_radius:  2.46782231354 Dipole_moment: 2.851
 S           2.01722314360098   -0.84874026407828    0.01326911952391
O           1.00168872489853   -1.87551091282562   -0.13357809731247
O           2.02432124966043    0.11800701685133   -1.06645834984101
O           1.94630253030380   -0.21837065822499    1.32522387058571
O           3.41275149430566   -1.59411336282953   -0.06144907170167
H           3.26693558036663   -2.33921901982802    0.51134961253900
H           0.46452169444159   -0.75710809962473    1.92130273747873
O          -1.30924518566032   -1.62651139954268   -1.46497079045563
H          -0.49187919983755   -1.91354110615702   -1.00869642089041
O          -1.27826539313212    2.27603958619451   -0.29602661210729
H          -1.51716426274449    3.20364171361233   -0.29703242157933
O          -0.42873481103212   -1.03950520201860    2.20593414349800
H          -0.47093901790984   -1.97205858519980    1.98373651205630
O          -2.39970077982683   -0.22390117242762    0.51169999564122
H          -1.76619157111070   -0.46283213744471    1.21763745978538
H          -2.20911447924624    0.69333916815256    0.27775719883114
H          -1.88409201869476   -1.26067800025687   -0.75034627424994
O           0.42002811551895    1.91889693041137    1.66014827325284
H          -0.59690400041265    2.16727772051668    0.42338630824546
H          -0.05288927320094    1.55210813369361    2.41284711672001
H           1.11707229101609    1.25745900137159    1.46288137171312
N          -0.26100576228699    0.61057044818058   -2.20004321190396
H           0.71709009581397    0.44967122307006   -1.81857214033057
H          -0.70696531937141    1.34324087824765   -1.61606310086075
H          -0.23431237521778    0.87451434351467   -3.17789278983694
H          -0.78053150023501   -0.33267624334846   -2.03604443878914
