    26
        -50.46596142  Gyration_radius:  2.46782221941 Dipole_moment: 2.851
 S           0.53832073668097   -1.76098241144215   -1.18258829260525
O           1.21323242225259   -0.56633067276291   -1.65616722903396
O           0.87058829280608   -2.11120030235292    0.18391660230194
O          -0.89987250434693   -1.67852087658109   -1.40273660209162
O           1.07036926061785   -2.95377193830228   -2.07863180230974
H           1.01672049876083   -2.58109475232595   -2.95202033300757
H          -1.12764025924552   -0.05409551920343   -1.79082564284238
O           2.08968415944602    1.45739081717195   -0.13561818522782
H           1.90588420342161    0.78439624498119   -0.82255390600425
O          -1.22809635052505    0.90687040211390   -1.94950465943341
H          -0.51401275052255    1.12971934939330   -2.55052811351411
O          -1.09871669281022    0.69465265170548    2.28375182742777
H          -1.63491893927145    0.71686111555302    3.07715215899529
O          -2.44354647029762   -0.63847644272754    0.48005494042362
H          -1.60440964378671    0.14456000389639    1.62406015558471
H          -2.86608132597171   -0.01000043798245   -0.11258946949443
H          -1.88196634845974   -1.18888188901368   -0.10645340878452
O          -0.36772126495665    2.43250841003243    0.13679270448923
H           1.27625716143847    2.01618424920704   -0.10337549731999
H          -0.78977412975971    1.95575189796939   -0.60576191884360
H          -0.69440682948625    2.01662624964590    0.94464297403683
N           1.44633796668662   -0.14322496862781    1.77967413764657
H           0.53463373054330    0.19412054936064    2.14274011394349
H           2.09791046907089   -0.34365995684076    2.52925715031231
H           1.25640811828382   -1.00865084053320    1.19401080459896
H           1.83481647943094    0.58924907767116    1.07330150075086
