    26
        -50.45446034  Gyration_radius:  2.7441769825 Dipole_moment: 5.608
 S          -1.88449988320470    2.00539037028276    0.78351739320593
O          -0.92169463473774    1.85973482242217    1.88313511345465
O          -1.24202688520071    2.14950377542447   -0.49791434791196
O          -2.87846397561419    0.94150524838519    0.82556225883276
O          -2.66563644206402    3.35642563631494    1.07077430524623
H          -3.10034507985059    3.17038658755480    1.89771802830477
H          -2.32341663107314   -0.49633109170418    0.48728391276136
O           0.79161513350636    0.79112513814183   -1.45361473085649
H           0.06311383342854    1.42506550518353   -1.27627360218761
O           1.98571539644450   -2.25876875331919   -0.08524959332018
H           2.44060205007003   -3.06066882229473   -0.34532311758526
O          -1.89237980010393   -1.39219917885171    0.38802356537475
H          -2.50371545145387   -2.01753128060539    0.77965103601475
O           3.32223860698203   -0.02937266641233   -0.92201718204348
H           3.91489176842641    0.68054853519585   -0.67319189931834
H           2.55405802629464   -1.52157044817099   -0.37637573707949
H           2.52797216661008    0.39077813078335   -1.29794565064200
O          -0.17556683924012   -1.66899647987286   -1.80530336388357
H           0.37525109376562    0.00122341580826   -1.86692566215593
H           0.53415649499359   -2.03864593270921   -1.25385292864753
H          -0.95943387185300   -1.64366058657208   -1.23805812805100
N           0.43275044482750   -0.14240443146643    1.01726377824610
H          -0.02277207786455    0.69623990052447    1.50715151877903
H           0.73558716587150    0.20102718551741    0.06078825858555
H           1.21177353691513   -0.55631848616667    1.51961251586378
H          -0.31977412585694   -0.84248610339446    0.87156425900047
