    26
        -50.45192345  Gyration_radius:  2.54505691847 Dipole_moment: 8.317
 S          -1.75917766976144   -0.06763837736263    1.93655343544652
O          -2.06619760872045    0.23315875780468    0.54371553502469
O          -2.79999574272263    0.17087658474176    2.87950115771487
O          -1.55203931146638   -1.69207774848576    1.93815245675472
O          -0.43868260344924    0.44044597198899    2.29792751395530
H           0.69274915491551   -0.53590091096531    1.80537821795252
H          -2.21498167916995   -1.95199680115413    2.56967379290532
O           1.33795179041983   -0.12605290996612   -2.51834675800722
H           2.00428330511462   -0.46244722808657   -3.11725226805630
O           0.22890034368229    2.13729689000780    0.27472963292851
H          -0.07446392713120    1.66791859774306    1.06917479508137
O           1.28936477508804   -1.22030099946910    1.38735811199307
H           1.34611896304109   -1.93200210326305    2.02633323581556
O           2.39439794427173    0.75876964187757   -0.34050245802374
H           1.83107847803686    0.25060204973494   -1.72282406867513
H           1.69409384843517    1.41556481341221   -0.09227958395936
H           2.32997501043888    0.07039627765507    0.33295938859140
O          -0.87717128262170    1.52953668173901   -2.23368317699506
H          -0.41554246873424    1.93041949707201   -0.42250918935804
H          -0.89271388849405    2.40705192957991   -2.61742280894136
H          -0.06711118905345    1.09842491411485   -2.54310606462335
N          -0.39509383275503   -1.23943519302665   -0.71296307411268
H           0.10591159735414   -0.83616551176460   -1.52828429801991
H          -0.86521535486935   -2.10300445910606   -0.96179101264768
H           0.29153275819007   -1.39597256987908    0.06393151014608
H          -1.12797140008464   -0.54746777499849   -0.31442401293274
