    26
        -50.44974389  Gyration_radius:  2.55342805149 Dipole_moment: 5.643
 S          -2.00693122589994   -1.31588386486532   -1.17198076952154
O          -1.73227837439851   -0.68055748877694    0.09932795591871
O          -3.24573268900505   -1.98009920912539   -1.31319810574130
O          -1.86630610467935   -0.24908564081339   -2.28936199034336
O          -0.85767390466627   -2.31570083300398   -1.46563265578284
H           0.01090536375499   -2.00403772161071   -1.07975129866120
H          -1.20512353278458    0.45939102450625   -2.05021156842274
O           1.40478829431217   -1.68636819717974   -0.37263720270816
H           1.93457887344327   -2.48519328998764   -0.37012636727413
O          -0.29270954816747    1.72886928148902   -1.68518426932307
H          -0.58678670037973    2.46655411132477   -2.22218947734030
O           1.26931324554194    1.58021368289784    1.88213617464264
H           1.72842535727778    2.35520703482308    2.20789807625413
O           2.13434055959986    0.97330545632853   -0.55180929506682
H           2.03706970050334    0.00806521143449   -0.58332633073772
H           1.41735504238650    1.31432928050817   -1.10797958402908
H           1.67688448464601    1.36464489080718    1.00341078515265
O          -1.18200841814486    1.88534572206441    0.71621567508635
H          -1.54883478248692    0.98462170105599    0.66365571247033
H          -0.37913604496632    1.81306438300761    1.27048639954298
H          -0.64599431342635    1.89187501176522   -0.74886867649072
N           0.38062773945064   -1.23977737974673    1.95713411296222
H           0.34353825999339   -1.87657320819768    2.74143481445541
H           1.06524236750196   -1.54535226344661    0.58750498246745
H          -0.56238417253708   -1.10988068850654    1.59671406878831
H           0.70883050313865   -0.33697697677604    2.28633883369563
