    26
        -50.42724559  Gyration_radius:  2.98049134226 Dipole_moment: 4.964
 S           2.03066179678003   -2.36445651517068   -1.36263186374351
O           2.80813536098881   -1.35325730276414   -0.70876137049994
O           1.96715351961653   -3.65940516624862   -0.79528337163955
O           0.61504432884580   -1.80683089903101   -1.64900391252513
O           2.58502336285832   -2.48565831036762   -2.84027063555229
H           2.84363043140623   -1.60556771957851   -3.10601793190410
H           0.10653364630853   -1.95507473168854   -0.77317329523695
O          -0.49189209511643   -2.21199617952186    0.56428733670113
H          -0.96130523181334   -3.04785150720146    0.57405325891948
O          -1.68751204670407    1.54400686661517   -1.05942423375902
H          -2.32754460728319    1.84947743288062   -1.70290960543215
O          -0.11257728234574    1.23654955561865    2.24433004219162
H           0.43242171945789    0.93874373666809    2.97279624908545
O          -2.07743643113014   -0.21169776960558    1.02045495122652
H          -1.48688333102204    0.27750427356676    1.62464988022141
H          -2.03106862471170    0.28544549742218    0.18328532202555
H          -1.15834693119426   -1.48557363245832    0.76396743732879
O          -1.55458588666660    3.22729914377410    1.05975964978305
H          -2.38451376970990    3.25609753300107    1.53956901104303
H          -0.96136096171138    2.65823818685598    1.58401067813416
H          -1.59260957634458    2.25818254762130   -0.39172678840387
N           1.15152935678516    0.91759796821117   -0.02837695792011
H           0.43273577313386    1.08930871042598    1.40066879735194
H           1.69869624868653    1.72783363748196   -0.29181738223604
H           1.75268537138600    0.09980936086139   -0.11505474381872
H           0.40338584908535    0.82127525940171   -0.70738050138210
