    26
        -50.46373133  Gyration_radius:  2.44893347584 Dipole_moment: 3.703
 S           1.26268947145650   -1.48812884498651    0.34153616884590
O           0.84759642815856   -0.43883142930769    1.28030208731621
O           2.64430240891070   -1.39963841278341   -0.01770988073198
O           1.08389600396370   -2.85913896247450    1.15532524799591
O           0.32157656301128   -1.58874940916975   -0.76046609606125
H          -1.08469707727222   -2.17284723913932   -0.05148759258979
H           1.97686227270787   -3.08348194138788    1.39746341715868
O           2.19974539700322    1.44933174997140    0.00168425861204
H           3.06568165931693    1.07280802699302   -0.17477135550015
O          -1.72012238656256    1.43730232805089   -1.54387060614800
H          -2.30656653157370    1.04394576706824   -2.19136163074538
O          -1.83087303995970   -2.33907281134029    0.56476807989615
H          -1.47541875989115   -2.93993692905622    1.22257586795233
O          -0.36590669521531    2.76648178616611    0.71171537918329
H           0.57413099556441    2.60281875272169    0.58376281871667
H          -0.74209833691395    2.86179376430903   -0.16778542127579
H           1.76580941722272    0.80136280541931    0.59051093674506
O           0.69149201292636    0.68645468875735   -2.13681765932116
H          -0.79164128541672    1.21358067073488   -1.84769240547688
H           1.30423720207007    1.11776261498149   -1.51089120306233
H           0.61774823596695   -0.23307019115764   -1.82388324561234
N          -1.63661252947304    0.30503483940789    0.88628783062295
H          -2.05018617699482   -0.65056161662794    0.87096476460050
H          -1.72338175986320    0.76860993823545   -0.05923282241395
H          -2.02025338997569    0.91869184651382    1.59856095815872
H          -0.60801010914097    0.14747819809789    1.08051212313737
