    26
        -50.44280007  Gyration_radius:  2.67131302055 Dipole_moment: 6.773
 S           2.33529334586401   -1.50608815146005   -0.86862838941886
O           1.34461841224898   -1.61944903361973    0.18107470918411
O           3.02220635082893   -2.68666753929898   -1.23326803237416
O           1.63761917255141   -0.87110089865987   -2.10092036116163
O           3.36460234423255   -0.41157459023436   -0.47227909051187
H           2.83826403875068    0.34394648929173   -0.13400210208176
H           0.63021438438238   -0.86553806567268   -2.03960453914243
O          -0.93456069559453   -0.88720581161469   -2.00545548400275
H          -1.23248054552746   -1.56691194875182   -2.61172183895750
O          -2.15762523790806    1.24906818442848    1.26529982603840
H          -2.97661174459751    1.74463749573721    1.29693062787900
O           1.33421529497116    0.99965297241951    0.42175504973907
H           1.11123892643999    0.05270260304151    0.49709337398907
O          -0.88271131182669    1.72286374089820   -0.99330097111377
H          -1.00698564927236    0.96646256052919   -1.58122865720918
H          -1.74153297399773    1.45636810692101    0.38480069718445
H           0.01670401701261    1.61646227763243   -0.62773249848671
O           0.11170193353418    1.93992867144711    2.61754646052220
H           0.05718520888416    2.89012750358529    2.73002331354749
H          -0.75601245356938    1.64770653483596    2.27231731808667
H           1.07878237996868    1.38962569850004    1.28722168792353
N          -1.51164138761781   -1.56106017960572    0.43129755967851
H          -1.80086006616860   -0.73990475976413    0.95564707839005
H          -0.55857103270501   -1.79087881444658    0.69950392796141
H          -2.11222362315433   -2.33270158686175    0.68860773990663
H          -1.21082910773275   -1.18047145928156   -1.06097742557415
