    26
        -50.45168924  Gyration_radius:  2.43176906347 Dipole_moment: 1.667
 S          -0.52304469275932    1.21741978127542   -1.23538254243397
O          -1.81625867103468    1.61373168320392   -0.75421938893201
O           0.04739582883979    1.92730890119063   -2.32304069616513
O           0.47483079774710    1.28318410295377   -0.04436381073938
O          -0.56527596735519   -0.28143273486258   -1.61919361154416
H          -0.98857232670954   -0.84702041021446   -0.90291985156401
H           0.02380071261343    1.16359951351472    0.84580834525402
O          -1.49573940305362   -1.79336145226406    0.23127292120788
H          -1.53062425546766   -2.69798567127976   -0.08474407264782
O          -0.63822917109702    0.99579113553659    2.27019668597346
H          -0.71416667485351    1.84672964352484    2.70542481937609
O           2.59957067354834   -0.56291937532729    0.32156783337845
H           2.62370973682038    0.34586059550232    0.62869217080809
O          -2.93807673862755    0.33309253556619    1.29751521099981
H          -2.78191237528685    0.88796668401723    0.50853976927060
H          -2.78085272376215   -0.57509448157034    1.00453550616397
H          -1.57474629181778    0.72290308531926    2.02132578015415
O           0.55712374605733   -1.51361388520802    1.73614109143891
H           1.34904417591287   -1.26683215142455    1.19666014727577
H           0.33834620772681   -0.73087145492874    2.25557009506616
H          -0.69814112773677   -1.74461942355985    0.85685456200308
N           2.21393265227242   -0.03204744232562   -2.30493188592387
H           1.74741099599234   -0.78749008762157   -2.79193478439797
H           3.03079688766403    0.22331928362625   -2.84734286744278
H           1.57354916276235    0.75750585048191   -2.31546507922518
H           2.46612883160665   -0.48512423513275   -0.65656634735983
