    26
        -50.45168977  Gyration_radius:  2.43177399316 Dipole_moment: 1.667
 S           1.70474733184031   -0.54274236495706    0.28469929973235
O           2.30593375319966   -0.36600061275990   -1.00694910611145
O           2.53526447506915   -0.88075332911797    1.38388003561141
O           0.94344120354290    0.76481176741176    0.64431484437743
O           0.59580304117261   -1.61766461650231    0.18164876020968
H          -0.01346240731541   -1.46294339422087   -0.60373390897547
H           0.64548107794156    1.27650668573575   -0.16783321481334
O           0.16961405003307    2.12674405473758   -1.41118319865984
H           0.74280724785465    2.88512925696981   -1.53609504470345
O          -1.08200900604929   -1.19208847042769   -1.71067580108402
H          -1.71046517826635   -1.91543039933414   -1.74598726666030
O          -1.52073839705301    0.78937572225674    2.05287667609586
H          -0.87906909210152    1.50235294545521    2.07987261965624
O           0.80835447766049    0.29086638090728   -3.11229705291222
H           0.09860182593495   -0.35480383557655   -2.99086939155591
H           0.36942994384571    1.49536156999367   -2.16963861658410
H           1.53485468501911   -0.01528108944384   -2.53500260410760
O          -2.16851635943406    0.80204871811368   -0.52732499389329
H          -1.57163318774680   -0.41500334139804   -1.27908445347277
H          -2.02527132080204    0.74182241008557    0.44982837791324
H          -1.63291674793962    1.54665230924691   -0.82590400498987
N           0.10323804544236   -1.17024958768715    2.97579098360911
H           1.00291460357761   -0.98249694522625    2.54118053263953
H           0.24604197432521   -1.21675984816888    3.97784848266019
H          -1.02202844781501    0.00160746430168    2.38645795924065
H          -0.18041759193343   -2.09106144041827    2.66418010668184
