    26
        -50.45168982  Gyration_radius:  2.43176177783 Dipole_moment: 1.667
 S          -0.69064433369194    0.24821037082818   -1.65621917480890
O           0.46546840502252    0.61927022839813   -2.42221111575606
O          -1.91321797803910    0.01253806723027   -2.33589356922658
O          -0.34008820598082   -1.03098218011433   -0.84430794455897
O          -0.94942601381006    1.32886730962082   -0.57872968933582
H          -0.11323044878728    1.57631670397826   -0.07722399522348
H           0.64320860957206   -1.11162654547577   -0.65290005822304
O          -1.29645001446992   -1.51141735300588    1.78459723848906
H          -1.07694501251270   -2.20311658051767    1.15673208828815
O           2.18097304184081   -1.29378564191738   -0.33955104521394
H           2.56400431831970   -1.95495469769625   -0.91871159901762
O           1.11290533297102    1.89163738249561    0.83794707733244
H           0.89438946561234    2.59574243675750    1.45106666038341
O           1.07533207420990   -0.34450975757910    2.08525957364312
H           1.61034350498680   -0.91464164607299    1.52035222890823
H           1.13215513269950    1.03762562284904    1.38577500269770
H           0.16432611697253   -0.73035891073514    2.07220550373093
O           2.79920180501932    1.05797814760025   -1.21108883547115
H           2.48566287770121    1.62904866603439   -0.49627778459765
H           2.54999324544848   -0.40728307783154   -0.64236064785479
H           2.06631129903439    1.02977810422428   -1.85683198499487
N          -3.17548373824541   -0.26872526996630    0.28332660379435
H          -3.27601016863672    0.71154060765732    0.51653961656884
H          -2.80946075610086   -0.30432103606381   -0.66446035519823
H          -2.00084602623643   -0.98512719425868    1.32916077891214
H          -4.10247255300691   -0.67770376643281    0.27380542677036
