    26
        -50.45267962  Gyration_radius:  2.74483869773 Dipole_moment: 5.921
 S          -0.13280871856614   -2.29495460583106   -1.88040999563140
O          -1.18398933069122   -2.37576864750731   -0.86403988768298
O           0.30083952546407   -3.54852964844180   -2.40223322056546
O          -0.83182930718986   -1.52010695979341   -3.12585156953587
O           0.91721473309184   -1.37081536797011   -1.45652008974896
H           0.38707983864735    0.11648691176546   -1.89058276278444
H          -1.05162170369510   -2.25658065412372   -3.68646238923083
O           1.59421214737797   -0.30672543668888    0.91567156785397
H           1.62676833059137   -0.83701638311385    0.09845945306291
O          -0.11954873839927    0.96150276071847   -1.98757837763605
H          -0.57846831053473    0.87196540181857   -2.82488412629797
O          -0.84794854744109    2.13287033344832    1.99221819971557
H          -0.90889104046937    2.94583949105446    2.49525547554940
O           1.26408216222910    2.22385194666523    0.12692687754822
H           0.49842514434766    2.36001468510266    0.70987400492918
H           1.76202811309899    0.62196393457639    0.63403953340335
H           0.90817769837375    2.05959825739783   -0.75582356595271
O           0.44124567481651    0.14284335497657    3.34839820691357
H          -0.41497430737808    1.48453479164552    2.57872670021624
H           0.31671847212950   -0.64140168678893    3.88386486970983
H           1.05948105549202   -0.09967430279893    2.63798409294543
N          -1.03347356697991   -0.12256240590596    0.31426540955609
H          -0.94039233190463    0.52387657417044   -0.49250995965982
H          -1.22580790913941   -1.10127366475709   -0.10353025849379
H          -0.08163030315818   -0.18216037522036    0.75639621111233
H          -1.72488880011087    0.21222168558464    0.97834560063983
