    26
        -50.46926249  Gyration_radius:  2.54937768568 Dipole_moment: 4.563
 S          -0.28318949951663   -0.47144517857278    0.11290789331932
O          -0.19093137354464    0.83695367076386    0.79387773921884
O           0.28243822355938   -0.25577952924468   -1.31867971568537
O           0.62848489880811   -1.42306901156690    0.73546706688911
O          -1.64624852790156   -0.93095893969647    0.02587434522651
O          -2.92568401560988   -1.25703729377588   -2.28257474126412
H          -2.70087727708504   -2.12067423954907   -2.63098161759756
H          -2.54260411929487   -1.21799234822297   -1.38120954367993
O           2.87112400556663   -0.67521643562258   -0.44559702398701
H           2.55182721754646   -0.42249824537582   -1.31685035367140
H           2.12467569243549   -1.17980288996603   -0.05449223735233
O           1.64661779667385   -0.96428929193967    3.14642836107931
H           0.92985966877410   -0.95942706591763    3.78267258137102
H           1.26454227748067   -1.31072678434632    2.30965282887320
O          -2.49339512266820    1.77383377299957   -0.18257794500165
H          -3.06975695648751    1.02046164061051   -0.02421318306596
H          -1.66406825450245    1.55389349991991    0.28051235843692
O          -1.51091727625349    1.01942815302179   -2.54617867970727
H          -0.40798561181926    0.28727311840166   -1.85733251724008
H          -2.12287172911179    0.27779475172025   -2.72674753087662
H          -1.92727013013614    1.50933037308048   -1.80011213951069
N           2.26843713600786    1.01934156040001    1.48613801137906
H           2.69663581283802    1.91998760255238    1.66818106071193
H           2.25310438996481    0.39576721061565    2.32541299296451
H           1.23231753896152    1.09227608610035    1.19528547463304
H           2.73573524531960    0.48257580359513    0.70513651453729
