    26
        -50.44922921  Gyration_radius:  2.46947163982 Dipole_moment: 5.766
 S           2.01452625388899    0.31237918357476   -0.90287497732636
O           1.46566047248040    0.95856072410303    0.26846310470927
O           3.40591883295655    0.06369901572261   -0.90425059607534
O           1.20006406420113   -0.99773639437742   -1.13897600495340
O           1.61644052918703    1.12569159982507   -2.15160146928848
H           0.63734108104679    1.32905520413084   -2.12106499702286
H           1.37265688058425   -1.67277895374718   -0.37590867078527
O          -2.20128269706363   -0.18542104194827    1.15987021087098
H          -3.15354384760626   -0.23669144471800    1.25186918011079
O          -0.90719147427724    1.73796905658240   -2.04391138597291
H          -1.02935986049785    2.55244171964901   -2.53464382586149
O           1.37515584811663   -2.59790620089572    0.78789203271647
H           0.68506901786270   -3.25519410386525    0.67141521018516
O          -0.92003256474934    2.14653992353411    0.49263744113985
H           0.01120564817489    1.86321226741826    0.56709303759380
H          -0.99011440096208    1.97566954162290   -1.06339011209371
H          -1.43850079534191    1.41215248467637    0.87364480271824
O          -1.55517800397128   -0.87774303376278   -1.33129041742290
H          -0.60982341181256   -1.09392734035399   -1.34027962737583
H          -1.99087878201440   -0.53438145229040    0.25925984161733
H          -1.61730947623260   -0.03996023238570   -1.80973968236957
N           0.47569752877211   -0.75063553518618    2.37982743735326
H           0.68754215338537   -0.65576336510729    3.36392996107844
H          -0.52414963336565   -0.62654570560316    2.25206252634035
H           0.93788434806879    0.00542552193851    1.87867044347831
H           1.05220230934503   -1.95811143829412    1.51129656647649
