    26
        -50.46245519  Gyration_radius:  2.43546649404 Dipole_moment: 5.473
 S          -0.33969902864142    0.82601745351334    0.55808393630938
O          -0.34522161753787   -0.62259689689421   -0.01707058649920
O           0.69294206888189    0.82400651720872    1.58943050565888
O          -0.06997569278975    1.76427868994422   -0.50901445129348
O          -1.67302282385436    0.99768232062662    1.14378286148146
O           0.50240512013474   -1.58983888943591    2.53511440484821
H           0.99519507297571   -2.06433143487956    1.85948238018147
H           0.65061970374233   -0.63457976675745    2.32084795493499
O           2.87458581170558   -0.06735464580067    0.37508525489050
H           2.08772017112189    0.29155434501694    0.83651562544484
H           3.62995793112071    0.39550106225378    0.74206595386637
O          -1.69795335034344    1.45039455503138   -2.58355631316557
H          -1.21356676109294    1.67287137185471   -1.76153083550871
H          -1.54473637588406    2.18061891003174   -3.18608856828505
O           1.98877172202144    0.88405632014572   -2.04293196313626
H           2.49246007110658    0.42922188531185   -1.34488270149375
H           1.35142860109133    1.43536815855382   -1.55693815927511
O          -0.07093966118076   -0.69674458352498   -2.50061494402092
H          -0.23280051242993   -0.68248098841154   -1.05725049893474
H          -0.75315750540344   -0.04251455202248   -2.75670830825646
H           0.79089937791521   -0.20945965838311   -2.54415896177069
N          -2.05363947761024   -1.33915281059631    1.99659811604295
H          -1.04738342300139   -1.57976594255643    2.27179829078809
H          -2.69655049132469   -1.43721236016802    2.77592418713530
H          -1.97850105293674   -0.27783335301738    1.65101509520937
H          -2.33983786778395   -1.90770567704575    1.20500171485035
