    26
        -50.45993449  Gyration_radius:  2.82279115287 Dipole_moment: 3.712
 S           0.70269224605482   -0.28809266097720    2.84063280474576
O           1.43392311908879   -1.25963798999413    2.02761997708979
O           0.97191798238673    1.07840014103876    2.45401220632988
O          -0.71678973458277   -0.60766595750549    2.89054171730992
O           1.25037134136767   -0.45465315251717    4.32026272190832
H           1.02049217403310   -1.35786507602247    4.51527016602196
H          -1.52689676905588   -0.43196123407329    1.55046700932115
O          -0.84084878739957    0.40416974682340   -3.31374016009202
H          -1.64740783214152    0.38396676087343   -3.82948882738460
O          -1.95276862212350   -0.43104786922533    0.64682424901783
H          -2.71788987990733   -1.00318692348992    0.72057567369060
O           1.09285349596032    1.92792360195015    0.02096618285401
H           1.02575621224695    1.67522755791959    0.98056191671818
O           0.70437827921248   -1.72915910332550   -2.85652096671650
H           1.80908235251477    2.56154379639319   -0.03378709280114
H           0.10008697172286   -0.99778218967074   -3.11711627602884
H           1.45975092124875   -1.67581671501073   -3.44312921615765
O          -1.44792032753873    1.71077567329736   -1.06590492059132
H          -1.05336492177927    0.92747313124723   -2.50315593890340
H          -1.81257228160049    1.09074936005955   -0.41654414670633
H          -0.61591158668201    2.02809916569758   -0.68226351057186
N           0.56401547545291   -0.72550406501295   -0.35900687344425
H           0.86771804582874    0.25650108633055   -0.47742024142420
H          -0.45763627563421   -0.72258146289656   -0.17708032258747
H           0.76513436644903   -1.27539235041001   -1.21986469962476
H           1.02183402426179   -1.08448328150860    0.52728855759896
