    26
        -50.46456601  Gyration_radius:  2.39509086108 Dipole_moment: 4.079
 S           0.66681484685222   -0.40082518539405    1.60196314994747
O           1.82629167763207   -1.22777239381834    1.41264023124493
O           0.46235533599035    0.17923686310678    2.91217277375895
O           0.81897099994929    0.87507872320714    0.66829883168338
O          -0.57030539370242   -1.06681426011419    1.13136072679573
H          -0.73285421544832   -1.69268744135477   -0.32327791277787
H           1.25957996619530    0.65613962588441   -0.19273939775501
O          -1.28277094910736    2.53934882271239   -0.13946954389616
H          -0.35651964040310    2.73813880098282    0.02877442042505
O          -0.82408750828178   -2.00423431859470   -1.26041516568407
H          -1.48219896987404   -2.70016443191571   -1.25352883844169
O           1.95591140319157    0.39067153757439   -1.64753571741249
H           2.85963169890173    0.70915182481350   -1.66535045371668
O          -0.84117410773741    0.68124643726843   -2.01081965306019
H          -1.25910332313612    1.88146562253134   -0.87691840706250
H           0.11160665108778    0.75366938335797   -2.15080956488721
H          -0.99182760493762   -0.26311475755745   -1.84311104897245
O           1.94151227727660   -2.12740325864104   -1.10060699127548
H           1.01040488068675   -2.32902890587637   -1.28791770481038
H           2.01499702590106   -0.61113748883498   -1.56444448472921
H           1.99354473996761   -1.96822150149619   -0.13451546966450
N          -1.76240629982078    1.02863429161086    1.95769469037887
H          -1.65074763184086    1.73336015743525    1.15918367302886
H          -0.89436111570051    1.00260820352220    2.56418427783840
H          -2.62092110627734    1.15290903148388    2.48336133544845
H          -1.65234360738681    0.06974461810478    1.53182625360728
