    26
        -50.47298366  Gyration_radius:  2.48798146696 Dipole_moment: 1.911
 S          -2.12006326055622    0.19573454048689    0.26941895974880
O          -2.48063715459581    0.19341524284426   -1.13396784609635
O          -1.77955441015335   -1.10783251840803    0.79838525000408
O          -1.09204001684601    1.19166078070732    0.56417596865557
O          -3.41910649409047    0.65787266424499    1.05239324676860
H          -3.76825997807557    1.33232869497719    0.47949607053522
H          -1.26385413628293   -0.18938240669863   -2.10882629799040
O           2.89151038291620    1.24753245384367   -0.05756441167051
H           3.03046990770533    2.02618811716663    0.48356316510318
O          -0.45457268791156   -0.43413495662457   -2.62783580473359
H          -0.76033517791161   -0.65995671259400   -3.50771947373224
O          -0.11005504686095   -0.07818676785077    2.61591562095396
H          -0.40208582672570    0.62297233697131    1.99403769714463
O           0.26241139997871   -2.09212840747992   -0.58912262060459
H          -0.76298472236300   -0.77186011279291    2.44053534293661
H          -0.55670462840722   -1.89363719006684   -0.08859510545948
H           0.16219213847079   -1.60860749202827   -1.42910659458789
O           0.68643284724884    1.75030695799420   -1.35785653307703
H           0.45549434576263    1.06176521844286   -1.99919861203069
H           0.01301216862704    1.67030189059474   -0.65346254690619
H           2.11134647756048    1.46555572518993   -0.64098702592427
N           1.89535071584546   -0.92403376736592    1.10865757859417
H           1.33611170021325   -1.44341625035953    0.36205339123329
H           2.36436080315558   -0.08615639582306    0.66882487353312
H           1.18258934135475   -0.58681364482210    1.82201324780451
H           2.57897130193264   -1.53948801063010    1.53477243983696
