    26
        -50.45499942  Gyration_radius:  2.50027478957 Dipole_moment: 4.589
 S          -0.39894625753565    0.90211917941962   -0.49488954650369
O          -1.07568381058819   -0.29989825711968   -0.98286175569411
O          -0.42011484134514    1.96771941833467   -1.60718320416397
O          -1.09260803413868    1.46032466820544    0.66020245295307
O           0.99456754848585    0.60244337759100   -0.16096521056731
O          -2.58207615888547   -0.79320150288256    1.02518316906196
H          -2.78816850911072    0.13635838004811    1.18083931429190
H          -2.06421135706133   -0.75873268802101    0.17221196884131
O           1.24312923042483   -1.55021105623438    1.20081734056399
H           1.14211096111524   -0.74415267309779    0.61288945630166
H           2.06108050136535   -1.41581262198328    1.68530409472432
O          -0.18695753637268    1.18906497683019    3.03939637154673
H          -0.42484164427491    1.40300957742499    2.09241069819773
H          -0.69674209585318    1.79072120896971    3.58500551167271
O          -0.24623512156668    0.24947400885550   -3.48255770439656
H          -0.35319443849387    1.43172046041849   -2.45902442071602
H           0.70860784982503    0.01394029996241   -3.37614085817452
H          -0.71873752808291   -0.31993156770052   -2.85664873700871
O          -0.76830924024144   -1.24859585286151    2.68689077398280
H           0.04961489889431   -1.50174880913057    2.09393255051515
H          -0.55136871523077   -0.28612595747173    2.98207071957256
H          -1.58771693766837   -1.14879038641822    2.01246313974786
N           2.23867744546876   -0.25704768618436   -2.58982427516441
H           3.02985623522805    0.30901472280795   -2.86884204119115
H           2.56428840175123   -1.20836522052583   -2.47313109241057
H           1.92397912388190    0.07670399076424   -1.67754872598950
