    26
        -50.45610065  Gyration_radius:  2.43363604364 Dipole_moment: 1.779
 S          -0.63332831960879   -0.30220549499133    0.79610997154686
O           0.67300213891776   -0.76300775939072    0.27023505027168
O          -0.70901522061703    1.15014281276049    0.73243343394676
O          -1.71960540215638   -0.91775836688215    0.03654297922529
O          -0.74341344916046   -0.78472769200332    2.24211815380957
O           1.57971428546884    2.11892307000846    1.67064164248284
H           0.66917520070227    1.86857193117313    1.40518803979782
H           2.05865525367245    2.27000966421308    0.85263238305574
O           0.90667489884866    1.21173899716783   -1.37763872897043
H           1.08371108330733    0.44634085265644   -0.77425212669433
H           0.21915580424435    1.68804684560263   -0.88088834617767
O          -0.14846294253245   -2.22653922730902   -1.69036118133988
H          -1.02771308584819   -2.31767631578068   -1.29569644314029
H           0.35977686827317   -1.81024575412670   -0.94599134948165
O          -2.60360120870858    0.45777423729190   -1.94600449823019
H          -3.46266432458521    0.10101169524447   -2.17833493510063
H          -2.34167652622453    0.02568555597615   -1.08503923222289
O          -0.40781109542733   -0.12917029829197   -3.04942616656838
H          -0.26265521069375   -1.07899622014711   -2.60479063585981
H          -1.35654382521953    0.14668647676233   -2.75766807891444
H           0.21321378075442    0.50364746579290   -2.48472125410770
N           1.61650399272443   -0.32883424374579    3.07091393881303
H           1.84242460568884   -0.36204344087876    4.05561669186709
H           2.21471680502296   -0.96663664753052    2.56328333613330
H           0.20465025892796   -0.61797987929741    2.66026401082245
H           1.77511562447757    0.61724173604791    2.71483334484389
