    26
        -50.43782389  Gyration_radius:  2.75367822795 Dipole_moment: 6.971
 S          -2.70992038520333    0.22564619033303   -1.47798548597501
O          -1.95066032748066    1.13057147735315   -0.66729191325753
O          -4.03836784195659   -0.06261958015847   -1.10237404893770
O          -2.67642270696880    0.75675723897653   -2.95492570046689
O          -1.90071100461633   -1.11285873832613   -1.59294672130300
H          -1.07518594131650   -0.81511295131284   -2.06092578923165
H          -1.74571170879505    0.93985622048309   -3.13886497819375
O          -0.10276829591149   -1.55316097687162    0.69847336781686
H          -0.81566978410319   -1.82462580559566    0.11316523588167
O          -0.01099150080453    0.13343634381743   -2.82405435613838
H           0.50682847019402   -0.28200604195101   -3.51757078993798
O           1.72622842463915    1.56787719854573    1.51706122429261
H           2.21438769917251    2.25492918214235    1.97088710739617
O           1.51129555591540    0.02190220475028   -0.77293739293838
H           1.60641896902288    0.77679109062142   -0.17240090361795
H           1.01273254930104   -0.64542340554157   -0.24842522996169
H           0.61721182801966    0.22006696609844   -2.03369268346538
O          -0.91915139560770    0.70387586870250    1.79244476446083
H          -1.41780631040844    0.98654369052072    1.00759023298729
H          -0.46467095959508   -0.78436321292628    1.21484753204173
H          -0.08365461084555    1.19786340013661    1.75646793187180
N           2.19658589489924   -0.87091323733916    2.56053782358265
H           1.97131652335518    0.70190604517312    1.94236323502743
H           3.10306002162980   -1.30939934324341    2.45645047647638
H           1.91416247034342   -0.95676259808374    3.52905875315991
H           1.53146436711355   -1.40077723628731    2.00504832842376
