    26
        -50.45796941  Gyration_radius:  2.58091423621 Dipole_moment: 5.773
 S          -2.24726853435151    0.84785816825766   -0.51426792987760
O          -1.93865486360242   -0.53497867624816   -0.14353429730609
O          -1.52564026607655    1.79460235056466    0.29642187945260
O          -2.13892011043532    1.05969372487897   -1.94559417061905
O          -3.79491911816601    1.04760130100839   -0.17361546840879
H          -4.22703416547407    0.67009215953514   -0.93411179068163
H          -0.57679291750059    0.85550189493033   -1.89482681882990
O           1.93552795499067   -1.92017872321262    0.64899063365255
H           2.36939771455357   -2.75760809852918    0.81585145846709
O           0.41339049971366    0.78685773882441   -1.90715679833174
H           0.70376825314205    1.48113012700895   -2.50363863328716
O           0.29574519526614    1.63118999636927    2.21878920669268
H          -0.42387227850930    1.92253192983957    1.62277405019482
O           2.08269655826201    0.96174162550033    0.32102393959195
H           2.26117671042430    0.03188570613936    0.50318703464568
H           1.45818475841481    0.97320655502309   -0.42417027526260
H           1.09111916356768    1.62381536182437    1.64542810448697
O           1.31847089622509   -1.75983683099997   -1.91686325014906
H           1.67658362565894   -1.92315852841690   -0.30668983538840
H           0.84139369544449   -0.90543470567183   -1.94653122913407
H           2.03411171411325   -1.68731289746029   -2.55115097000625
N          -0.31866361133267   -0.86334135962780    1.84028225601368
H          -0.05394905317809    0.14477439619465    2.13454348438525
H          -0.74544521773172   -1.37707378408536    2.60217459443747
H          -1.01399815558344   -0.75508848252010    1.02828077482167
H           0.52359153216973   -1.34847095913026    1.48440407044093
