    26
        -50.43987376  Gyration_radius:  2.61920931391 Dipole_moment: 8.078
 S          -1.42743187119516    0.19620702540899   -1.90476038679557
O          -0.07334259172427   -0.21802855063615   -2.12089292624576
O          -2.15776666367085    0.73851174990613   -2.98845380472660
O          -2.23444352335150   -0.98986102163241   -1.30149826399386
O          -1.43073155386863    1.20855485139233   -0.70054907909720
H          -0.48162438320547    1.44420468527093   -0.45637815642748
H          -1.69451936536560   -1.33969524545029   -0.55180285968488
O           3.35285787022501   -1.24286929865606   -0.09784682189099
H           4.28222177455406   -1.07105417181245    0.05766981901470
O           0.92813498462020    1.80706363241098    0.11876135671746
H           0.87807962697830    2.53255179888706    0.74335765575339
O          -1.03230509047682   -1.68635283568340    0.92678995104186
H          -1.28081603515931   -2.55543414688448    1.24713557122593
O           1.37177969072675   -0.35009184659074    1.44678628790108
H           2.13784450040714   -0.75156126585312    0.97579289686071
H           1.13195397180630    0.97427230388141    0.66029234356629
H           0.61581563372320   -0.91879152842475    1.23523832680756
O           2.51215095162889    0.54035842110707   -1.89027903862745
H           3.08963093277061   -0.66468828296066   -0.85572651814695
H           1.67876832604376    0.14819262047526   -2.19822126276138
H           2.22509084022764    1.26135449511822   -1.31684698337835
N          -2.55697513397030    0.25680708608462    1.87721781729610
H          -3.54851430089323    0.06752707346506    1.95045488497111
H          -1.59776364919952   -1.01161694705725    1.40788195583236
H          -2.41051458902073    0.82879056548990    1.04880331284652
H          -2.27758035249341    0.79564883284846    2.68707393195894
