    26
        -50.44619979  Gyration_radius:  2.55309804227 Dipole_moment: 7.611
 S          -2.23951828021878    0.79395083839816   -0.44874454824572
O          -2.07408809301414   -0.37276088968373    0.38880856105568
O          -3.42514754537278    1.54528618749868   -0.27710219657422
O          -0.96923754523165    1.68291806857540   -0.23767523614774
O          -2.09391489851935    0.39492549007915   -1.92902831763084
H          -1.36677177752040   -0.28919033215702   -2.08859490113383
H          -0.91366078625079    1.72392322195731    0.77735354901617
O           2.13978941253818   -0.79371988756748    0.64782073736857
H           2.94053786454446   -1.28292508422948    0.45531912500014
O          -0.31689705806514   -1.41226226737663   -2.38176185623194
H          -0.76611849181878   -2.07916104499595   -2.90470137197411
O          -1.05268373627332    1.38175722634352    2.26251691929701
H          -1.63954061472641    0.62468041405281    2.14481058640174
O          -0.15316744798469   -2.21144234792279    0.05942436023761
H           0.64237798165878   -1.78857912864184    0.43022622636864
H          -0.90900162501368   -1.66025891451619    0.33871942451740
H          -0.19861190193963   -1.80890993622618   -1.46045477165563
O           1.32163464643142    0.37253045486510    2.96229354319426
H          -0.20224657046410    1.01817774314882    2.60714447243148
H           1.63195006053888   -0.10317783522995    2.16853011735570
H           1.98437463648053    1.03384701758883    3.16730926036261
N           1.55033192370178    0.71916768516771   -1.43081711032424
H           2.19430418935776    1.34905490511966   -1.89225663678104
H           1.18289097318939    0.07932259781975   -2.12757811791363
H           1.96981112077907   -0.18522119631839   -0.13611008744597
H           0.76260356318553    1.26806702426696   -1.09545171053433
