    26
        -50.43972078  Gyration_radius:  2.5515850275 Dipole_moment: 8.077
 S          -2.53166319373233    0.00779485374311   -0.11363373855269
O          -1.67451777044548    1.16460376399585   -0.15682162447698
O          -3.85539072560152    0.18883792175729    0.35287356582330
O          -2.48984680442764   -0.68687678372579   -1.49074605251792
O          -1.85034343838996   -1.05345374851874    0.82008093255993
H          -0.97840894487537   -1.32504788887298    0.42743441792225
H          -1.96965832971158   -0.08921023292657   -2.13094742320838
O           0.45899055790174   -1.84904683261698   -0.09442920971586
H           0.46597457766575   -2.80694384819878   -0.12666877894344
O          -1.06981370499409    0.71207708959873   -3.06135331236016
H          -0.88039032605290    0.22800574103534   -3.86851032716461
O           1.71393487990010    1.73931812480791    0.64056487000232
H           1.69943251097216    2.68041833917016    0.45955311651129
O           1.13012846295797    0.34936803101948   -1.67672837139283
H           0.90048987387429   -0.49814664125931   -1.27109369611665
H          -0.22353329155119    0.72748105700546   -2.53884303677164
H           1.32077126819301    0.94140734696292   -0.92583497991459
O          -0.44364266202255    1.21272820355988    2.15626423527194
H          -0.97942440351753    1.34744320364698    1.34515207072590
H          -0.74929387175310    0.37733426844952    2.51567256129681
H           0.95113570670093    1.57253332244203    1.23727261769578
N           2.29510748661321   -0.98719188343404    1.57881685952323
H           2.40318202612075   -0.03531532785303    1.23679478804303
H           3.20595505986232   -1.42849203685102    1.56156412739902
H           1.99204481429498   -0.92650993537888    2.54300110959559
H           1.15878024133645   -1.56311610729156    0.58056526827219
