    26
        -50.45332206  Gyration_radius:  2.73112892688 Dipole_moment: 4.602
 S          -2.43385813113197    1.48057457714280    0.08692481915358
O          -2.71819776147624    0.05571754325720    0.27898653743519
O          -1.11731688295089    1.82875279990973    0.61212233083062
O          -2.63387987281432    1.90134804017769   -1.27775475690264
O          -3.48199036919943    2.27340931847661    0.98207383156239
H          -4.27706627171251    2.26742173226818    0.45635637695071
H          -0.76806383078529    1.70276935317521   -2.27734153238530
O           0.00046762946381    1.46104293597164   -1.74609669047764
H          -0.24854982145083    1.80606336033198   -0.86067603726396
O           1.97304401105139   -2.21773090646872   -0.80269288890994
H           2.75510735140650   -2.69758585811788   -1.07788144836978
O           0.87265257643293    0.30225894608115    1.55219675218978
H           0.17193719207559    0.97860716400812    1.47459840579582
O           1.56155928807256   -2.31898723599068    1.88740855776202
H           1.90111178609618   -2.34914427804324    0.16321966921496
H           1.41864702836882   -1.36696102515776    2.02500172997188
H           0.97120094963503   -2.77417823999786    2.48914790126960
O           2.45205080548179    0.55995386515920   -0.59790604258752
H           1.59495270064794    0.59483841741378    0.95282678637520
H           2.37880097754266   -0.38082212996563   -0.82987062103645
H           1.88088012513689    1.03935156535927   -1.20947171503572
N          -0.45155236291049   -0.87128260454382   -0.47232225423076
H          -1.46880299335070   -0.68322198715456   -0.19328111681629
H          -0.21350982542464   -0.15214737368979   -1.19257735983814
H           0.12293407919401   -0.62947138566873    0.37701345550685
H          -0.24255838715078   -1.81057658420180   -0.80000468999330
