    26
        -50.45123447  Gyration_radius:  2.5239437879 Dipole_moment: 7.076
 S          -2.32149945685091   -0.88436886921791   -0.45040932276573
O          -1.13631490799715   -1.56243899197826   -1.02194947901509
O          -3.55397440357999   -1.51910805167800   -0.74382869163262
O          -2.08505562677069   -0.97515425741104    1.13249628187542
O          -2.24693248122003    0.54954940978926   -0.74602806333095
H          -0.85400090154873    0.71930119469062   -1.60049714494543
H          -1.47897814648014   -0.25484258529129    1.35754345212477
O           3.08522322570943   -1.18097320548792   -0.40894101623622
H           3.30990674587590   -1.36744603917852   -1.32148428210095
O           0.03609378814037    0.75645505123803   -2.01988484406974
H           0.11673801135003   -0.09717436255416   -2.45106595996920
O          -0.04502619143870    0.78611740475551    1.84887060997801
H          -0.15670035054637    1.02678314065607    2.77002586417677
O           1.99486826690033    1.20513649042409   -0.26078720704258
H           2.86280930764220   -0.21472245416265   -0.36780056745375
H           1.30850541845473    1.12108370970466   -0.96279012199826
H           1.51609931846939    1.26048575144542    0.57214424637518
O          -1.11958295655099    2.61523655745015    0.38106562526635
H          -1.73139664120400    1.97227401478843   -0.04595841119069
H          -0.42758344159053    1.55011745438443    1.31807072250469
H          -0.57755385288148    2.96142966515950   -0.33307700994985
N           0.71643090680636   -1.70601222554327    0.68790642983191
H           1.66806253503398   -1.65402033224180    0.23784028420428
H          -0.07710641324250   -1.68924389482277   -0.08930477630318
H           0.61882127538115   -2.54640146975029    1.24740959180324
H           0.57814698210468   -0.87206308512463    1.27043373987119
