    26
        -50.46573375  Gyration_radius:  2.53513868069 Dipole_moment: 4.215
 S           1.52007099447355   -1.23841441465978    0.61091597945407
O           2.01858335075082   -1.05636165417860   -0.74303375969399
O           1.30973161710379    0.00494947525008    1.32098202319153
O           0.35367134221668   -2.11687462412205    0.64596051336754
O           2.66554278469213   -1.99366447022686    1.40943635178012
H           2.84146669296260   -2.77397868357725    0.89239234317398
H          -0.39778509255155   -1.94054940507876   -0.93641251427266
O          -2.88419046753423    0.39513836465232    0.98128488365715
H          -3.63159551442168   -0.19932605850342    1.06043347416743
O          -0.34701764066045   -1.47204014953103   -1.79214144160757
H           0.60478419231907   -1.25967574961328   -1.81788989451478
O           0.12291584696163    2.74782026850054   -1.02885739966251
H          -0.02338171787525    3.29265341682469   -0.25344246687769
O           2.40423596498930    1.60313090733257   -0.45726240267795
H           2.57615458269070    0.82599468219968   -1.00531578468268
H           1.03294896015000    2.35815489676233   -0.90736435492250
H           2.09460009732370    1.19668575902095    0.37650980893548
O          -1.01312616943612   -0.71920485389682    2.42411847211281
H          -0.69359141239194   -1.44910441831459    1.85962166743762
H          -0.24342990385763   -0.13146915500941    2.43054614318430
H          -2.18438233145000    0.02600141091406    1.59128368793155
N          -1.63539852982806    0.78426740161308   -1.34102951958479
H          -1.11869853289273   -0.12108215667197   -1.57058916730446
H          -2.27399090387468    1.01904737966048   -2.09384770151775
H          -2.16587936433788    0.65031650691680   -0.43934742759770
H          -0.93223883565911    1.56758533379869   -1.21695151360589
