    26
        -50.46573356  Gyration_radius:  2.53464745763 Dipole_moment: 4.199
 S          -1.68431621594416   -1.09135715768806    0.42574542071278
O          -0.75149466991977   -2.03237920647854    1.02503668449271
O          -1.57035587224679    0.25071583365497    0.95532293755456
O          -1.63405905671917   -1.13213651431294   -1.03339967715637
O          -3.13751607797296   -1.58484930298352    0.83194705686459
H          -3.16983574826786   -2.49259567408905    0.54534852007323
H          -0.00268065221704   -1.67077906859068   -1.41731646266517
O           0.86246980448610   -1.91858609809518   -1.03715139862111
H           0.58422017036180   -2.21306321121568   -0.14974712845747
O           2.02508726771058    1.10027422736801    1.81778860702845
H           1.72859593629673    1.99885414846302    1.97305493382746
O           0.61872842506513    2.12472700742786   -2.13285282885733
H           0.59206439444566    2.10813417073729   -3.09056461691955
O          -1.80578765048618    1.47879720571151   -1.40515812965059
H          -1.83746782366956    0.51383458490880   -1.55106037521308
H          -1.85619688283360    1.52801760032058   -0.43927544736692
H          -0.32081525519784    1.95851548457142   -1.83701986937322
O           0.10035536202838   -0.29319309593563    2.91123753219169
H          -0.60994854603209    0.09385714482447    2.36159546052568
H           0.09719160688637   -1.21460437293310    2.62023400926761
H           1.37238037210299    0.52192885854392    2.30172646899566
N           2.09281560165261    0.39503315192320   -0.73996619626548
H           2.06510853428870    0.67530327387553    0.28191095694715
H           1.63737028571735   -0.56329119919727   -0.85591849853651
H           1.54736766166535    1.09799870817729   -1.30625778184386
H           3.05671903867254    0.36084350146346   -1.05526017788483
