    26
        -50.45123446  Gyration_radius:  2.52407540157 Dipole_moment: 7.076
 S           2.24333369868584   -0.74847693830536    0.88405249821980
O           2.11638912133871   -0.22871232133219   -0.49613148465251
O           3.56770900031167   -1.08307099047756    1.26110272180920
O           1.76585879764795    0.47876543106541    1.79807720231686
O           1.22779164102826   -1.78216078129276    1.10605331575883
H           0.42194110863357   -1.87753776657603   -0.32265545734111
H           0.79830758800309    0.45205824330334    1.80366726338794
O          -0.07264118414447   -1.80999943038396   -1.17135657953652
H           0.60192454066743   -1.55452471561715   -1.80448872330581
O          -1.02214627727099    1.73390835713444   -2.65233005394282
H          -0.80626031894069    1.32291191468519   -3.49044124313852
O          -0.99875803614602    0.75976505615470    1.56962041524534
H          -1.32942888365165    1.19197645886292    2.35879097200506
O          -1.27392022765379   -1.79028383989614    1.84761452611723
H          -1.17663692668686   -0.22153949760587    1.70012243888184
H          -1.69628959100468   -2.25550548367260    1.12043379843847
H          -0.30885904451109   -1.94907169474913    1.73124628089027
O          -2.09029136421062   -0.06363916324343   -1.06084880530065
H          -2.02981510733809    0.26557678904091   -0.15864264912810
H          -1.59073178785863    1.08545545288541   -2.16142540876336
H          -1.41521257280116   -0.77760065619812   -1.13459914029994
N           0.60831960713878    1.79598451798312   -0.54790066744903
H           1.14282315761511    2.64064653662176   -0.37564669742251
H          -0.05249264502642    1.62968610871946    0.21992470142832
H           0.07136939687966    1.86034085909437   -1.45248412524627
H           1.29771630943066    0.92504753374469   -0.57175508898784
