    26
        -50.46573383  Gyration_radius:  2.5353151735 Dipole_moment: 4.223
 S           1.32677100558441   -1.53674174909579   -0.31333042258554
O           1.99775890970233   -1.00429306643924    0.86182499797709
O          -0.06617959592254   -1.85749338807620   -0.08707919514789
O           1.53154241225917   -0.68951655540146   -1.48541281931725
O           2.03236053780944   -2.92065010957932   -0.64067061356826
H           2.95597298547569   -2.70329344503068   -0.72375049284112
H           1.79982921383250    0.92600565598555   -0.83892129928256
O           1.83587111655096    1.45828010411172   -0.02054971535516
H           2.06763676338874    0.76626588268400    0.62682748579794
O          -1.93625755357955    1.49139980954466   -1.86151610569432
H          -1.80807199118865    1.99671683719116   -2.66554817412280
O          -1.66205051301851    0.58825852636215    2.34878342712564
H          -2.50505547470344    0.17888943441013    2.14570615845358
O          -0.93935634814420   -0.86092936457388   -2.40666858040602
H          -1.09388760307322   -1.44019263630702   -1.64609876646384
H          -1.63277489883361    0.56452201995334   -2.07800200582016
H           0.02522718255980   -0.72015577433305   -2.34899825850748
O          -0.08297613725632   -1.49023524286931    2.51663557889152
H           0.85139980445158   -1.25056918053062    2.45843804459135
H          -1.03693658179631   -0.16995769872957    2.51938873298493
H          -0.26410589699799   -1.81464596518742    1.61209463503391
N          -0.68295329780767    2.11101281695321    0.40767903339529
H          -1.07263151257282    1.50270774205660    1.18320749650954
H          -0.78905645073861    3.08841129652839    0.65888754381380
H           0.34963561034918    1.88171042003905    0.26416019035922
H          -1.20171171628256    1.90449363034862   -0.48708685583665
