    26
        -50.45592231  Gyration_radius:  2.66367424729 Dipole_moment: 5.321
 S           0.03517825642601    2.66121530567119   -0.60253251043321
O          -0.65510387144347    2.64097412787970   -1.86941944376495
O          -0.88809478698882    2.51659594331453    0.52757442703658
O           1.11602071898442    1.68785139840691   -0.51917194338615
O           0.70826218654258    4.09143334299935   -0.46024480561824
H           0.09273431031019    4.67261687663197   -0.89830933999443
H           0.49358352580534    0.53978934326314   -1.53909695251588
O          -0.03895376539942   -1.01874377201367    2.26782948611318
H          -0.01759121642622   -0.51131945138444    3.07986761251956
O          -0.16796087499497   -0.02547301435607   -2.00321819462065
H          -0.61245207714792    0.61100884838837   -2.57592357206528
O           1.27782805678435   -2.22126614390120   -1.00845946770701
H           0.88422299129468   -1.62782857427578   -1.65887845890012
O          -0.76553570182117   -3.13449151082821    0.65276631910544
H          -0.56655673072666   -4.03001762751707    0.92947833963600
H          -0.50804773521945   -2.55323623784715    1.38545347150978
H           0.52984826933539   -2.63441436826595   -0.54409857975739
O           2.03085796196338   -0.45016035049512    0.88712987567615
H           1.96997875267231   -1.12324487205686    0.17318374626896
H           1.84849408451544    0.40356659386495    0.45596129629195
H           0.83483412140249   -0.80846773176054    1.78636851308995
N          -1.54565238932103    0.04334864619032    0.30737441545139
H          -1.04032769199141   -0.44890679259845    1.08622954124634
H          -2.53244334959775   -0.19126245116094    0.30809498295525
H          -1.38041175374205    1.10128390511039    0.44792540513581
H          -1.10271129123470   -0.19085144328591   -0.61588414328620
