    26
        -50.46607506  Gyration_radius:  2.43501395622 Dipole_moment: 6.136
 S          -2.27222560849139   -0.49151049537508   -0.07085850972830
O          -1.50594858179952   -1.16587821469002    0.97771596111704
O          -2.86376357783331    0.74283739344462    0.33619847709490
O          -1.44771652510497   -0.35705871107524   -1.27909078025112
O          -3.43863901220772   -1.49100731600490   -0.46267563359702
H          -2.98252195453733   -2.29481442762257   -0.69335380591120
H          -0.95232884647219    1.13241307260895   -0.93508799257430
O           0.90407766120051   -2.20673455027917    0.55936379002299
H          -0.02732572845212   -1.96539807562414    0.76130089391162
O          -0.60141920778828    2.00836218129258   -0.63641728282986
H          -1.37326085697784    2.57916782777633   -0.62668600757654
O           1.99453957587438    1.39250990794081   -1.06663494662896
H           2.43497882535819    2.03940932098010   -1.61916847904922
O           1.00648920665294   -1.20347017468118   -1.89545049941555
H           0.06568937480966   -0.94796694405102   -1.82731481802783
H           1.49764733339957   -0.37693228354111   -1.80307386431569
H           1.00012110221660   -2.05990679497147   -0.41146493081636
O          -0.40155225771023    1.03314476303999    1.96690015351413
H          -0.94639226345037    0.23439322175833    1.80982682888499
H           1.07385019718769    1.70216402897049   -0.95366975510327
H          -0.60680659371667    1.60907857496158    1.21145809712728
N           1.92561717836665    0.02727430320829    1.34425079631574
H           2.21564800502858    0.52538751581879    0.49157626472341
H           1.60440998530187   -0.98057182536046    1.07006120847912
H           2.66229846855178    0.01525021788625    2.03942778881492
H           1.03453411059876    0.49985745358175    1.71286704580727
