    26
        -50.45494024  Gyration_radius:  2.74414286558 Dipole_moment: 4.799
 S           1.96042276752767    0.10857266144606   -2.13102662687395
O           0.58346626103175    0.21183490444530   -2.58183019128327
O           2.33890529854121    1.16413714832667   -1.20184583872492
O           2.26359439670168   -1.21703414890840   -1.61048294919660
O           2.86394254750442    0.31496706385974   -3.42046240541476
H           2.43287519882008   -0.24483083806572   -4.05913450275453
H           1.70012392707433   -1.63273176250891   -0.20507916480325
O          -1.39443916801490    0.18340109013906    2.63492540856782
H          -1.88119816958594    0.03684222632517    3.44636508341389
O           1.36771553444758   -1.80587129367207    0.72192268179793
H           2.03166170967816   -2.36056136294326    1.13330545844561
O          -1.37060887566875    0.44710164538759   -0.87091985297858
H          -0.74762497276534    0.37406729599077   -1.63310859173544
O          -1.41597009755859   -1.75949153099859    0.62203013374434
H          -1.45649325751508   -1.22296705940815    1.43223122312899
H          -1.53182288162158   -0.47073459999520   -0.55150903362012
H          -0.49538173519193   -2.05292609446329    0.56235639957845
O          -2.75457605865936    1.84240274116467    0.98329690675539
H          -2.34199100821622    1.50070554181530    0.16790345113186
H          -3.70090402479313    1.76263857042077    0.85485386860232
H          -1.90834972066855    0.83954775705087    2.11768870820633
N           0.69455387028734    0.81626468717338    0.74967309546016
H          -0.21766266902567    0.78330252159869    0.20717462520478
H           0.62172827987245    1.43365747946864    1.55152741547883
H           0.91996417538446   -0.15452391058635    1.04211337187945
H           1.43806866243374    1.10222926693553    0.03803132598907
