    26
        -50.46172223  Gyration_radius:  2.52014924569 Dipole_moment: 6.727
 S          -2.11966770544637    0.39877923294205    0.63184466220637
O          -1.24884418201022   -0.74727677499133    0.97066177867019
O          -2.70060120878126    1.01010564979297    1.78584048512473
O          -1.37895810825107    1.33981523603404   -0.20835238204209
O          -3.26789266273134   -0.20871338104932   -0.26089631501348
H          -2.83536206559743   -0.71243332243268   -0.95133389159221
H          -0.70586742809475    2.44475668760086    1.00400267624108
O           2.31820261121749    0.28523172671478   -0.67410914353261
H           2.94374583342338    0.95781899185230   -0.94605610458170
O          -0.43406316748636    2.52919783367868    1.93849347868931
H          -1.23939743905151    2.25597005350678    2.40203721280596
O          -0.80105683043132   -1.87854031471825   -1.37979881198850
H          -0.98954878521208   -1.58792276463284   -0.46549757020338
O           1.89798767245334   -2.47353423630623   -1.05653396301717
H           0.04587454717782   -2.35079406473595   -1.30523641512737
H           2.35510628899696   -2.75223744228265   -1.85157713913183
H           2.17076269810460   -1.55860217625439   -0.88439342380883
O           0.21876691558880    0.48611761500086   -2.11603410521183
H          -0.14465041540398   -0.42651565515121   -2.10161524849163
H          -0.38562850708842    0.97390703971901   -1.51777153088197
H           1.50789524710100    0.39626591345633   -1.28506620594102
N           0.99126844936708    0.32102090543845    1.67202200628965
H           1.60028997264246    0.35042268613557    0.81882563254849
H           0.60473140598655    1.28286157735164    1.89552374722027
H           0.11650777702213   -0.24603007415741    1.42501710824388
H           1.48039909648541   -0.08967094254319    2.46000342257788
