    26
        -50.45555321  Gyration_radius:  2.61986336225 Dipole_moment: 4.929
 S           1.29000719463292   -2.17556831797479    0.63133393264350
O           2.37468716156124   -1.26225327249185    0.25439486505589
O           1.04919371839127   -2.20837268443579    2.04399727556162
O           0.08234091623537   -1.85859787304397   -0.13670711704835
O           1.75023630195719   -3.61771792143302    0.16775773371495
H           1.94324069954123   -3.52313312948628   -0.76189198937569
H          -0.77047560609388   -0.97795649766248    0.95551857294723
O          -0.98558081052318   -0.40587159018863    1.73419499416015
H          -0.88109643850219   -1.00285247031647    2.48200905301883
O          -2.59721403008542    0.43398780581525   -2.07147292162354
H          -2.86906183486683    0.79079748599880   -2.91736826255673
O           0.39601947928501    2.33506727490508   -0.62402444766041
H           0.43206132135927    3.24729333442118   -0.91207731523541
O           0.01981621847455   -0.09475029773523   -2.15483179489555
H          -1.66358476114285    0.13253770285090   -2.18406523688183
H           0.36965965186174    0.70591770638092   -1.74239738064959
H           0.08335605788044   -0.79790589329458   -1.47955034711674
O          -1.99101300305404    1.74471586475636    0.17904663731123
H          -1.88211556802388    1.03619092066123    0.82713833477198
H          -0.55491426324612    2.16248768725565   -0.33647605789045
H          -2.37376780820146    1.30753672618149   -0.61358562141436
N           1.36907906754797    0.83090159450963    1.35133635674814
H           1.90828384887222    0.01098205626586    0.89993928502396
H           0.44835520997047    0.42144709982679    1.66228390642341
H           1.88849257546109    1.21986237853305    2.13063376456131
H           1.16399468081387    1.54525431971998    0.61486377041397
