    26
        -50.46379652  Gyration_radius:  2.41582667379 Dipole_moment: 9.065
 S          -0.62888263661297   -0.83380317677429   -1.65659808058704
O           0.77754270388595   -0.95755649839940   -1.18937674981005
O          -1.09363641778212   -2.04778858430874   -2.25193200279607
O          -1.46572488651820   -0.57812471314147   -0.33607872373138
O          -0.77705871492405    0.38954399947415   -2.42032868870566
H          -0.57277385922573    1.71772780277335   -1.64836879851811
H          -1.59521667299644   -1.51517947708301    0.01135538780676
O           0.89888346091954    0.58288198577779    2.26897932068188
H           1.02377555029476    0.81801449357888    3.18898980447008
O          -1.42810295315510   -3.04353060185334    0.24898590475167
H          -1.27683806790668   -3.16850982803624   -0.70196395894863
O          -0.33427264561051    2.55972556751772   -1.14974292388933
H          -0.53007668187545    3.27636864274693   -1.75512054381090
O           0.96677701889093   -2.17680555140485    1.17447794179421
H           0.90183283476910   -1.39668025729475    1.73839496006326
H          -0.55276088374391   -3.02462899454777    0.68786637997950
H           1.03288484002214   -1.83051343585706    0.26405871871223
O          -1.30439675897104    1.59641878616279    1.27625222106988
H          -1.06761871365893    2.19248373718252    0.54908846439547
H           0.01022863592138    0.94607846116007    2.00053304671472
H          -1.62577065457050    0.79795175762250    0.82556352990139
N           1.76087708018789    1.16684245352455   -0.21779861595145
H           2.72619896197837    1.34440282695834   -0.47009135873703
H           1.38854869372660    0.24437671073979   -0.69499460702928
H           1.64448724896605    1.02263439453367    0.80617639682878
H           1.12109350798891    1.91766948894850   -0.54832701465473
