    26
        -50.45555332  Gyration_radius:  2.61965641692 Dipole_moment: 4.918
 S           2.15322414110096    0.45700448471813    1.39581532774122
O           1.92876739141441   -0.97605323205611    1.61632286498889
O           3.08380307107909    0.72305373618607    0.33846657595314
O           0.87011822568475    1.13806163726076    1.19917853948373
O           2.75620292266975    1.01947254153748    2.74728844421064
H           2.12208578594261    0.77363431860794    3.41655934871051
H           0.82196900873461    1.26428000728717   -0.43727238109310
O          -1.43600155725022   -1.84312755291792   -0.73776121364726
H          -2.08515812109902   -2.47443066613064   -1.04838454956333
O          -2.94414779429050    1.59753226178949    0.00548687831291
H          -3.86525520436550    1.53448642242431    0.25906428601170
O           1.00008024539998    1.09211125702380   -1.39565646391171
H           1.89150369132885    1.43340302403165   -1.51942050191283
O          -1.67861200850981    0.39166186050577   -2.01805596819343
H          -1.58749485885621   -0.99498575673097   -1.26156583214970
H          -2.21655011974299    0.92908684383543   -1.39545123310067
H          -0.80175729428964    0.79770431919380   -2.00546776793097
O          -1.50820928456580   -0.05186707669725    1.53938489527184
H          -2.43557052173479    1.07825471872449    0.67399168421524
H          -1.44380035493161   -0.81808289315475    0.95443038653305
H          -0.63576430138957    0.38677656054984    1.50943893266877
N           1.21001782083857   -1.51726490786271   -0.78910980184331
H           1.82727485017285   -2.12785701865422   -1.31307456376079
H           0.22091045306802   -1.85843299375781   -0.78826198653439
H           1.54425327714193   -1.41699291583116    0.23313323034769
H           1.20811051650441   -0.53742897973941   -1.17907914091538
