    26
        -50.46264617  Gyration_radius:  2.56087356174 Dipole_moment: 5.095
 S           0.22382052979363   -0.04358605939998    1.08901309247768
O          -0.77973002727738   -0.18985653627678    2.24710363726554
O           1.22031576046145    0.92298659437563    1.54287518538107
O           0.79839440199925   -1.33450816890913    0.76927915928592
O          -0.51717244824747    0.50820316555153   -0.06684944515088
O           2.58727268423461    2.46942460372761   -1.66125700406294
H           3.47188315086010    2.45189996782130   -1.29130473196469
H           2.31741892460437    1.52534787341384   -1.76379137937445
O          -2.56525680477832   -1.00709268453780   -0.96860829478325
H          -2.10417706616254   -1.82416346733475   -1.19230789890984
H          -1.86529489868967   -0.37013203794501   -0.73620425724718
O          -0.81677606759563   -3.19496462562697   -0.13668117486010
H          -0.17123716935330   -2.51756907666781    0.17094684950166
H          -0.32337547995651   -4.01198019534272   -0.21807243403858
O           1.65336337310781   -0.01869260684542   -1.51884284229768
H           1.97591055692861   -0.67562899328384   -0.89255168147481
H           0.74823288918681    0.15852777656947   -1.20625174182554
O          -2.55386464958982   -1.88688345320864    1.54368445188531
H          -2.87453109496173   -1.47836354777404    0.70811684827399
H          -2.03284106840300   -2.64444330640453    1.23111568754236
H          -1.50692896373168   -0.86746864384439    2.02301367189890
N           0.61383750541557    2.86442021092533    0.05988379242102
H          -0.16705592292685    2.29067626347143   -0.30048101012199
H           1.38082018565486    2.90664880049209   -0.66669887323138
H           0.31893543321121    3.77602012315828    0.39078113981163
H           0.96803626622264    2.19117803388288    0.84408923358956
