    26
        -50.44751480  Gyration_radius:  2.55475008906 Dipole_moment: 7.614
 S          -1.62109487247860   -1.67629842361630    0.72809760866324
O          -0.68420457202182   -2.13665379508968    1.84915763573698
O          -2.96639223590160   -1.95242686446428    1.05774926856282
O          -1.30322725998095   -0.28589372162311    0.43085026871188
O          -1.20234464874590   -2.50919876776122   -0.51130998704882
H          -0.35433281013150   -2.15145098660955   -0.89600730886961
H          -0.20779833332605    0.74245173592696    1.01142319330898
O           1.01348226481329   -1.62702811653630   -1.55454543053545
H           1.01168861078102   -1.92402116843239   -2.46634305340621
O          -1.55245427949438    1.44543592412687   -1.66625649409900
H          -1.73473269094611    0.78247598043444   -0.98127283852275
O           0.50578179666939    1.35183893581968    1.33144880852775
H           0.28185808781925    1.55060559903382    2.24262689567343
O           1.03075698287610    0.96077775401497   -1.54072952265361
H           1.14089718811729    1.21875545135373   -0.62000496753292
H           1.02329708160505   -0.62038216779629   -1.59184143560562
H           0.08145383029237    1.16905535051079   -1.75307851913762
O          -0.63285447999604    3.50953201855866   -0.06464051474758
H          -0.16864130256763    2.84748024619557    0.47531116176453
H           0.03701576939400    3.99598117857523   -0.54788533679980
H          -1.54047645045948    2.29852650187711   -1.19962774620960
N           1.65885544675192   -1.37798404895915    1.24441577970364
H           2.40464561354368   -1.77528549120711    1.79850842821811
H           0.31424140996358   -1.83896046798400    1.62934351688953
H           1.67656610846475   -0.36549470166551    1.32455230997896
H           1.78801373499485   -1.63183795467221    0.27005826943004
