    26
        -50.46846778  Gyration_radius:  2.3995562137 Dipole_moment: 5.641
 S           0.27835796284347   -1.55161573983349    0.91033518892028
O           0.48906665910039   -1.59898312738293   -0.55713854452857
O           1.32016280308784   -2.23958215090064    1.62362509889948
O           0.14330081934054   -0.16075594880755    1.32796646245822
O          -1.08356950031068   -2.25959229426637    1.18057178623920
H          -1.77578443965585   -1.67209434186137    0.79246727776807
H           2.23820196269140    0.44187201867486    2.35693244948732
O           2.82500771223391   -0.06584845681524    1.78827740415107
H           2.43082610139622   -0.96911586721165    1.79800201444408
O           0.01031411230891    2.14754200841786   -1.27066617613214
H           0.00868157207028    3.08426876519845   -1.47106389583716
O          -2.86659732416490   -0.71373189982623   -0.05367317731796
H          -3.60413920686956   -1.27368250945175   -0.30214878602903
O          -1.25163643032121   -0.30559752835738   -2.06427056401618
H          -0.87615271433530    0.58451991871745   -2.01969318412868
H          -0.59082592910090   -0.89011133133593   -1.63252063758034
H          -2.34705858482475   -0.54295642169291   -0.88900148793857
O          -1.57811692217579    1.70061150440118    0.73703226044310
H          -0.61912303203828    2.03063709987015   -0.49710461314411
H          -2.35104482319360    1.16581548019134    0.52131173166324
H          -0.94450716854345    1.05114428423605    1.11874572964287
N           2.05449797740719    0.43401671739802   -0.69822969997905
H           1.46507164721769   -0.46279009079207   -0.76297871875654
H           2.43623467456907    0.39913542849952    0.29322156223411
H           2.79937471719372    0.44352559917230   -1.38719982168699
H           1.38945735407176    1.22336885375908   -0.84279966927607
