    26
        -50.46701397  Gyration_radius:  2.51970332859 Dipole_moment: 3.079
 S          -1.44131762465769    1.71621713697840    0.31015175886805
O          -0.94820833168610    3.04707073726988    0.09947334427284
O          -1.89202954033968    1.02588575376894   -0.88592816990930
O          -0.50380002672370    0.87494350087849    1.06711662572626
O          -2.72638714158889    1.85395393133897    1.24776425128899
H          -2.79370199192338    2.79074981133427    1.40500372567703
H           0.75083082751080    1.68495114052647    0.10024053863006
O          -1.96052439762731   -1.24554319814965    0.50430407919694
H          -2.41035169914353   -0.66280872244106   -0.12757174297342
O           1.50516738762606    1.88088164385650   -0.48220923721966
H           1.38219789280726    2.80306730399451   -0.72166716905869
O           2.07501871713631   -2.47885782968022    0.67785385242847
H           1.97478781754221   -3.05213465533333    1.43917057025302
O           0.24794403892304    0.20684987734683   -2.22689323326022
H          -1.42828532250304   -0.60195623323993    1.01175188298081
H          -0.61284125573513    0.55601894453289   -1.90958910892794
H           0.91295755360855    0.76590791085241   -1.78324286357595
O           2.03198409435492   -0.01791395844694    1.61705019967010
H           1.09454226815205    0.23601664357361    1.63486120559015
H           2.15149888823597   -1.55852592598804    1.04128763109493
H           2.43405546903409    0.59467420724469    0.99084585471061
N           0.03565753183148   -2.10849904068253   -1.01098962713232
H           0.86363181792984   -2.31823197852927   -0.39787718265615
H           0.21683334442565   -1.21300739080354   -1.57111396771382
H          -0.15650251449728   -2.88338015496722   -1.63600423575881
H          -0.80315780283850   -1.89632944514876   -0.39378897283936
