    26
        -50.44128669  Gyration_radius:  2.56590969379 Dipole_moment: 7.932
 S           1.80561733738786   -0.32382530647549   -1.64821376667727
O           2.05909270800109    0.98186053613480   -1.08009309596895
O           2.71114058275646   -0.81038097778092   -2.62150164642920
O           1.68312937857083   -1.33667254853946   -0.47320125204311
O           0.35786239057015   -0.34013679678910   -2.21310027446933
H          -0.03669115082115    0.58144282684659   -2.05636317168459
H           2.06327723248984   -0.87266667135174    0.36684761501416
O          -1.97434210404334   -0.69699984550890    1.35661682000855
H          -2.56944511861108   -1.20260421869464    1.91119150534875
O          -0.32632194968847    2.03002428513966   -1.62766696807104
H           0.60225572889382    2.11909149085311   -1.35972468110670
O           2.53931173257787    0.08416742856537    1.40524075169605
H           2.68178431951546    0.78690503435306    0.75391774020363
O           0.15490599760865    0.77011513044490    2.39124689522685
H          -0.50718922363511    0.10090465628752    2.15113336400224
H          -0.17199147926445    1.59316812553943    2.01471200727358
H           1.72517985166311    0.33240924617643    1.90353492699337
O          -1.84331241020625    1.91949586536617    0.62140435975292
H          -2.70295905573495    2.32346587162920    0.49542399418669
H          -1.99749749746277    0.97720988998520    0.82984511701686
H          -0.86064990708455    2.04318066199581   -0.80651797878075
N          -1.07895208081152   -2.30791406749513   -0.53044943108801
H          -1.64880837798894   -1.32012514943726    0.63670897039738
H          -1.32780618858545   -1.94765544279366   -1.44489080260351
H          -0.07229678545796   -2.18092536132275   -0.44946852159737
H          -1.26529394064084   -3.30353468316514   -0.52663246659238
