    26
        -50.45774252  Gyration_radius:  2.54335211674 Dipole_moment: 2.961
 S          -2.11306991533029   -0.68842236841260   -0.46361634320664
O          -2.14663331491938    0.69665553902983   -0.86868665928457
O          -1.23398675034670   -1.48486274816360   -1.32047711362521
O          -1.82141372316853   -0.89987410387719    0.94532569357610
O          -3.58296452288580   -1.25121035438016   -0.68702170663891
H          -3.90169993143015   -0.73717971313314   -1.42248164674341
H          -0.55562112473345   -2.07261445091706    1.10310213672276
O           0.17416120419899   -2.55202183745579    0.65887853848914
H          -0.16839560834666   -2.58429868559944   -0.25111451002864
O           0.73205691789588    0.04795163217950   -2.04245971262774
H          -0.09409868377783   -0.44677275494112   -1.81487758697101
O           1.19868631832436    1.57243680310049    1.75364943318374
H           1.36040183685958    1.73602457375141    2.68341732874673
O          -1.37814011384421    1.63944915425405    1.48227178697569
H           0.20692996997780    1.66057415126391    1.62936552983712
H          -1.63998299597132    1.73805850941762    0.55076940693231
H          -1.60486855828517    0.70475733255361    1.63996701200887
O           2.46600395842257    2.00651319304585   -0.78987569571658
H           1.73517718644958    1.80253468449025   -1.38185233010843
H           2.06709900966467    2.23424811291009    0.05751953088728
H           0.95168272451629   -0.19732834539182   -2.94271790594513
N           1.89037700730993   -0.59531625802801    0.30677761172010
H           1.62434440346704   -0.28513674475222   -0.65859509930435
H           1.28130916098057   -1.44451842419918    0.54109136522109
H           2.88277842445475   -0.80384550920510    0.34242031307165
H           1.66986710131054    0.20419862261466    0.94922061278397
