    26
        -50.46306580  Gyration_radius:  2.5453234202 Dipole_moment: 3.932
 S          -1.70003426415665   -1.47368142289731   -0.02957724740893
O          -1.75227360482569   -1.12004639183624    1.38878420286849
O          -1.34136151929996   -0.33662829593208   -0.85430366927463
O          -0.86307433854001   -2.63400663968540   -0.25896945431157
O          -3.16959476805534   -1.88109016377505   -0.44727583642278
H          -3.25721887249595   -2.72848020162457   -0.02380269864419
H           0.79526787877741   -2.48633504769867   -0.05713699827332
O           1.67657587538922   -2.11535289625999    0.18101485594780
H           1.84169866003642   -1.42660610018725   -0.47994118031967
O           0.52100400560089    2.51303197402924   -2.45588527316046
H           0.01441545352481    2.45693158268816   -3.26681322481258
O           1.25728517004269    1.64416547693281    1.01928082039127
H           1.95866979681889    2.29576873370364    0.98942901671700
O           1.21269049468184    0.24512178757973   -1.20445501480607
H           0.27983648439161   -0.06064513910184   -1.15399977293051
H           1.17601903129517    1.00139555712196   -1.82849719405288
H           1.30259641472446    1.14442907354288    0.15515869020382
O          -1.17308087785401    2.33106702235940   -0.37623264072972
H          -1.43474301463257    1.40805383411602   -0.54581860474270
H          -0.54991651292317    2.28752710699322    0.36007031444489
H          -0.14165858861017    2.60594848483245   -1.73107735511216
N           0.68186470853298   -0.72966398961746    2.15710260562964
H           0.92538265561757    0.26068407918643    1.96031954293037
H           1.21059387599955   -1.34521916151534    1.45201904576583
H           0.88652965122100   -0.98353577852282    3.11694917867389
H          -0.35747379526737   -0.87283350449251    1.93365791145097
