    26
        -50.43330483  Gyration_radius:  2.85309647762 Dipole_moment: 4.870
 S           0.29146060174639   -2.64159179823878   -0.19063591234063
O          -0.25077146862841   -2.14983550390468    1.04328605799651
O          -0.09240847513907   -3.94546134680240   -0.59316455562190
O          -0.06759880036591   -1.59888652233141   -1.31688732782993
O           1.83498998819387   -2.53108026644682   -0.17240015895227
H           2.00776904767477   -1.56517006294751   -0.04284674575862
H          -0.87990501697905   -1.07142816192006   -1.06278301063100
O           0.66518346904139    3.58621403734074   -0.42472341385891
H           0.68680366757546    4.33239631128105    0.17628196257720
O           1.89240276389624    0.07484617218760   -0.26262203142260
H           1.52413030559596   -0.02410510292794   -1.14753967828968
O          -2.16515910336027   -0.19169766938943   -0.71219019190836
H          -2.83506954031181   -0.29223918040247   -1.39075303839187
O           3.16188154847409    2.49814928290871   -0.51402675649958
H           3.78529340104510    2.43406149093398   -1.23865521861114
H           1.59277259289309    3.29021895458151   -0.51744052944577
H           2.87186795415866    1.58850401560045   -0.30922911516320
O          -0.18267361941176    1.28411083338259    0.72939618841971
H          -0.94204914193508    0.91061571801465    0.26632669379349
H           1.13859391531312    0.45989977016296    0.27777600332583
H          -0.00995561601731    2.16155467139991    0.32700707390693
N          -2.90601363601605   -1.35663559055386    1.50334348241554
H          -3.56425080538926   -2.12434392093084    1.54214437088727
H          -3.06138509167187   -0.76657513035738    2.31083794280312
H          -1.96501146565988   -1.74744379447181    1.58439180280832
H          -2.53089747472136   -0.61407719615706    0.13510607578766
