    26
        -50.44131469  Gyration_radius:  2.68878499745 Dipole_moment: 5.683
 S          -0.72449953583297   -1.39903771764990    2.24932876593132
O          -1.51728072835937   -2.15726346492796    1.31724698687216
O          -1.24142777451294   -1.20357619152967    3.55077209689183
O           0.69179976251141   -2.01446546604112    2.35163820669309
O          -0.42300507455840   -0.01459482994874    1.57507156194205
H          -0.94500923107011    0.06619728726574    0.70951433236374
H           1.08803867008834   -2.06328604945287    1.43809052699290
O           1.65181704593326   -2.08667486183291   -0.06852549457933
H           2.14610080161635   -2.88937961604050   -0.24394832693343
O           1.66345211034082    2.48665189548332   -1.44351518462870
H           2.39738456709360    3.09904022421207   -1.38127400354764
O          -1.74073221609463    0.26636121352267   -0.59391342438120
H          -2.67094534628229    0.22711073545244   -0.36473273316549
O          -0.66821620944599   -2.22510363318360   -1.18669808522493
H          -0.96540944734138   -1.33442413939933   -1.41762994038168
H           0.80648016016247   -2.14636174014044   -0.61137740949077
H          -1.11211368274986   -2.40393869445179   -0.33144469353307
O           2.08746090151291    0.63880944046469    0.47784708621330
H           2.17664721419121   -0.27013370153486    0.16155380725647
H           1.84116613490650    1.79013917742284   -0.77533954609017
H           1.30868544794103    0.63250649631694    1.04938599061035
N          -1.18195583440901    2.70090662949346   -1.31854365500793
H          -1.39732530159566    3.40333206032808   -0.62212561102123
H          -0.16462366265316    2.67050830144551   -1.42328936563555
H          -1.53557339792154    1.22297922248318   -0.89554490090833
H          -1.57091537345480    3.00369740222269   -2.20254698723751
