    26
        -50.43331556  Gyration_radius:  2.83647239754 Dipole_moment: 4.679
 S          -1.42398979030269   -1.98038342267141    1.05308812540824
O          -1.06100778202614   -2.09790049983461   -0.33017957992764
O          -1.57099152412301   -3.18430683322458    1.78737428236092
O          -0.36439872016578   -1.04512980296015    1.74904841792358
O          -2.69994005808485   -1.11618738896299    1.19235630423890
H          -2.44602536969339   -0.24984625684852    0.78821134412672
H           0.52724048083369   -1.12415364712865    1.30189334648397
O           1.97049279059288   -1.19905993236300    0.61746310081939
H           2.58945963684366   -1.60826383157476    1.22461239587563
O          -1.56020098199143    1.11612793896433    0.45045423024654
H          -1.13752660799214    1.12122885214109    1.31527661921528
O           1.23167241926996    3.38289306108599   -0.53322959500986
H           1.68231739896219    3.78824965956480    0.20849971225632
O           0.59616916876142    0.77051544530470   -0.96765602589274
H           0.96568560712198    1.67400865035752   -0.92418190888051
H           1.20169793944642    0.19414055704276   -0.48814672223416
H          -0.82297281522587    0.89234621576705   -0.19228755544116
O          -1.44338907944719    3.76540072054537   -0.26966645699546
H          -1.91563838958122    3.91598821369566   -1.08998322139007
H          -1.65364329914904    2.85150729168817    0.00365721916905
H           0.29184519270439    3.65307832353543   -0.46600789905466
N           1.45099753069312   -2.79344986652082   -1.37869496015427
H           1.85065854693218   -1.84112306008480   -0.16159869396672
H           0.45145775050349   -2.66734774661175   -1.20582744439021
H           1.64712040887813   -2.43124391459298   -2.30328394973730
H           1.64290954623886   -3.78708872630738   -1.38119108505770
