    26
        -50.46571662  Gyration_radius:  2.43855607078 Dipole_moment: 5.125
 S          -1.38165698829188   -0.94145272303371    0.25701647188957
O          -0.67874983402909    0.03958201766953    1.10653874071466
O          -2.79130951812827   -0.66368172543401    0.15655040581827
O          -0.74501480193547   -0.70897052264915   -1.20058735788204
O          -1.00172735523696   -2.29028112765606    0.57650545898028
H           0.37968822863680   -2.36606590333211    2.34422566404554
H          -0.97044932382270    0.21473772961932   -1.47853558833476
O           3.06284642878692    0.45784158470208   -0.65297502740061
H           3.70260111167637    0.68646597372173    0.02355667335953
O          -1.36062082457092    1.78400518237272   -1.75168874783223
H          -1.96373626195208    1.87323657065833   -2.49158362540159
O           0.97823760676499   -1.61526394029547    2.26245832452947
H           0.37682732301014   -0.87192934626286    2.01919967760155
O           0.90565750573181    1.81746861166008   -0.07648590750763
H           0.34755389613914    1.20016216757029    0.44419777152671
H           2.28464003300420    1.06146553276244   -0.50079952394589
H           0.35616278814529    2.08621989773385   -0.82173639890580
O          -2.70078183492973    1.91595497076223    0.46787096484466
H          -2.92176418820948    0.95570519539345    0.40373323193584
H          -2.06568302168071    1.96539881915286    1.18837567517464
H          -1.90383514983904    1.96340224707937   -0.92797698595638
N           1.63394033506203   -1.73029137723274   -0.28465583266339
H           1.97462345837333   -2.61629169752560   -0.64383219655372
H           2.30283806461533   -0.92879780952782   -0.48813911904876
H           0.71337620008935   -1.50773824222278   -0.70526196640677
H           1.46633611259288   -1.78088206569728    0.77402921739692
