    26
        -50.46306716  Gyration_radius:  2.54521564247 Dipole_moment: 3.913
 S          -2.02267804222813   -0.23989445518172   -0.95620674913546
O          -2.40873471601015   -0.50698050968206    0.42900577123965
O          -0.98735412781629    0.77151243450399   -1.03973528811218
O          -1.68898064379960   -1.46089671333309   -1.66155537461544
O          -3.29597306465694    0.36541517074067   -1.67212168189281
H          -3.83944760191054   -0.40867048804817   -1.77451704126941
H          -0.28430068855355   -2.27743972927412   -1.24443144852751
O           0.53307757046872   -2.54041845200848   -0.76103418705206
H           1.17072972979585   -1.83664803844228   -0.95252849023105
O           2.27582184878600    2.62334790119981   -0.74235752761288
H           2.10258598903686    3.16752373494336   -1.51137623403337
O           1.37339394647090    0.20342706971785    1.84212904950151
H           2.23900868590155    0.35691309205099    2.22243497528874
O           1.53989844978408    0.04547240597251   -0.77582288627548
H           0.60639668041415    0.27082432409333   -0.98587564838685
H           2.02099586119046    0.88802788508227   -0.92185995651340
H           1.50867768528092    0.14346470274806    0.85399786636703
O           0.04671259911709    2.52487876645602    0.75714058426510
H           0.30841009616690    1.87969044452586    1.42617064036165
H           1.49860895297645    2.74478619478635   -0.14700762101408
H          -0.48297595440039    2.02389711658963    0.11081633237212
N          -0.44163085074783   -1.76391812050478    1.53270972482715
H           0.22445383897177   -1.05654114610940    1.89962788218577
H           0.00665205719325   -2.22220923794953    0.66978229253413
H          -0.69521027731930   -2.44417646794960    2.24022249745996
H          -1.30813801411526   -1.25138788491091    1.16239251830090
