    26
        -50.45053740  Gyration_radius:  2.58584004033 Dipole_moment: 10.312
 S           0.12109623063223   -1.98498879992472   -1.86083019424277
O          -0.88566089294747   -2.49642696464844   -0.95306944996304
O           0.85983589813900   -2.96326566547139   -2.59132006850530
O          -0.68858108512595   -1.13089408222325   -2.97940076064392
O           0.93412354893455   -0.94671225845935   -1.21179160058979
H           0.26946211192639    0.41744517496829   -1.39871122191371
H          -0.79298201424532   -1.80119201563261   -3.64496427518296
O           2.49586173973978    1.16010805061306    1.81543082599980
H           2.84459326606543    1.13979389134758    2.70739082959731
O          -1.30978122604909    0.04991383051034    1.95147736598554
H          -1.99816747768721   -0.14275879588132    2.58802547058626
O          -0.18348619100752    1.31429639823299   -1.46953506047213
H           0.02507506427240    1.63097864248649   -2.34882871168936
O           1.26785121954839   -1.08949054595310    1.40736155384339
H           1.21609068893572   -1.16934502080299    0.43114438222085
H           2.16701309287519    0.23127518646684    1.62704650572122
H           0.35532886109561   -0.95240750472733    1.69740440383478
O          -2.21626464341024   -0.36570765817405   -0.40923989434860
H          -1.70300224036143   -0.16288854750567    1.04184687799682
H          -1.78413375108829    0.26119207269163   -1.00388493605615
H          -1.80322512341594   -1.24399909574523   -0.62257575265298
N           0.15759750633560    2.07874880301900    1.05194945826696
H           0.08465554432775    1.89483858202043    0.01739086702854
H          -0.48122334198123    1.38861906414407    1.52033199529443
H           1.14651125217141    1.84806184504831    1.36666468417843
H          -0.09858802767506    3.03480543360300    1.27068668569786
