    26
        -50.44112154  Gyration_radius:  2.58353546707 Dipole_moment: 4.740
 S          -0.31913782918573   -2.45690912505620    0.91416892821461
O           1.08582409789794   -2.23077634514368    1.13343744283412
O          -0.76374576031015   -3.80518693695338    0.77224551003089
O          -1.08514948087186   -1.89168874154658    2.21687527870174
O          -0.80974334220513   -1.55658361041981   -0.16581198468628
H          -1.48598409934304   -0.14379454878118    0.35365974256724
H          -1.64631879595863   -2.63217081330256    2.42160246288229
O          -1.82407345139958    0.73898386506355    0.63191850677505
H          -2.77733037893950    0.69811379980697    0.54678359211878
O          -0.56052770027042    1.00819194324395   -3.09935727708313
H          -0.14762513461661    1.47293982288953   -3.82848912409040
O           1.95700404400528    1.14289715219838   -0.26355599250458
H           2.89766301108457    0.98515842856760   -0.17221221166207
O           0.85018984061404   -0.60915844603029   -1.72885431667815
H           0.16841890312772   -1.09379061573504   -1.07417436268547
H           0.26718241074552   -0.05183996426673   -2.36801158001584
H           1.35335560778134    0.08198841907763   -1.13582132637381
O          -0.45880494146482    2.46691103067727   -0.94477280440525
H          -0.63687643845593    1.65941827578432   -2.34489128092828
H          -1.00674984211112    1.94941621429582   -0.31914735397505
H           0.45394276443267    2.32289467643033   -0.66414355778288
N           0.86869158023184    0.40215005686998    1.91785455449740
H           1.53190137855223    0.89614430837089    0.66563208542167
H           0.95703576696611   -0.61013003292808    1.78375584954663
H           1.25285260667743    0.63833657043966    2.82310265201851
H          -0.12199481698549    0.61848462644852    1.92820656727692
