    26
        -50.46306738  Gyration_radius:  2.54501215452 Dipole_moment: 3.906
 S          -1.59213956725868   -1.11871275590064   -1.13018424863953
O          -1.89805909021995   -1.60774631039994    0.21379367066407
O          -1.15946473121825    0.26487647963799   -1.11242542601971
O          -0.67065347009891   -1.99839305267728   -1.82070057081952
O          -2.94760817562365   -1.15181754340911   -1.94364398847325
H          -3.04563480096016   -2.08394814734955   -2.10677467408066
H           0.92101861221603   -2.07077659198096   -1.29617452338357
O           1.72962013826879   -1.93988321084299   -0.74846423402290
H           1.96633837556348   -1.00905299157903   -0.87514639771513
O           0.79378937784467    3.42416294463248   -0.50324972158235
H           0.43658555495815    3.86391621029898   -1.27559166739745
O           0.98025183733300    0.73229492064496    1.95548602497244
H           1.63714801042364    1.26008194126873    2.41086780378554
O           1.38252908472138    0.81191918023545   -0.64049282714016
H           1.19592095424441    0.79608091076645    0.98202406095951
H           0.47176129631585    0.57850187422375   -0.92739087163994
H           1.41192554389076    1.78835076114986   -0.73168348201568
O          -1.21649149462951    2.19758404837773    0.79307376899112
H          -0.72520655383550    1.71895070152583    1.47273231598811
H           0.01312738558900    3.12873412501678    0.02267713914139
H          -1.39588412161814    1.54103407362338    0.09586440913659
N           0.34881119025699   -1.84067146396817    1.46461184445858
H           1.01917294816384   -1.98538903270205    0.63680163909887
H          -0.62943663651252   -1.78046153952579    1.02864506619325
H           0.40194347627861   -2.59659245524164    2.13795438998465
H           0.57063484597909   -0.92304305587251    1.89739052956426
