    26
        -50.46843460  Gyration_radius:  2.5381334036 Dipole_moment: 4.852
 S           0.49206006185915   -0.72607914214571   -0.28740663583830
O           1.01770520751052   -1.05419182591890   -1.68745407998193
O           1.51448622481967   -1.08017871000709    0.67516434814282
O           0.22927990967948    0.73025571988104   -0.24390225151144
O          -0.74947438263410   -1.46130215963605   -0.05013987364316
O          -2.76087502298074   -0.82983175380071   -1.62396465018700
H          -3.24465166290417   -1.64359851773539   -1.77541742024317
H          -2.06892068574833   -1.04609488659593   -0.96008282201955
O           2.60702598827149    0.54598808755406    2.42322647395336
H           3.34892198608017    0.99121813804487    2.01167129804610
H           2.31679774385429   -0.14545560556466    1.78061457880902
O          -0.62705477109411   -1.49016006685473    2.55358455391313
H           0.22091455222588   -1.92291689520658    2.68916259928205
H          -0.79904044614304   -1.59154877592535    1.58679579154838
O           0.02794575126349    2.20516620229291   -2.46105342265071
H           0.06511349799150    1.75127122996490   -1.59428145376867
H           0.93693919912448    2.37335437899615   -2.71508557806973
O          -0.75454953262992   -0.23566060396831   -3.29105195832426
H          -1.59793063620767   -0.41063094807295   -2.81717080596060
H          -0.60365135325397    0.72860914076629   -3.20708840946698
H           0.30555308544690   -0.77376293783932   -2.37926794944137
N           0.00553159782184    1.05146306028210    2.30163852922247
H           0.00483940850016    1.05466314469544    1.23025977731992
H          -0.54761504562275    1.80255125611136    2.69902598344327
H          -0.35348081380142    0.08555901991538    2.56855069816575
H           1.01413008859890    1.09131345084241    2.57367266924229
