    26
        -50.46306653  Gyration_radius:  2.54525217839 Dipole_moment: 3.922
 S           0.89656587330421    2.04203260194507   -0.29886036567505
O           1.98896714683425    1.24676180092055   -0.85887674671984
O          -0.39815617889572    1.46094672651383   -0.59541382965610
O           1.09721891770055    2.30392941593487    1.11206017435265
O           0.93474882987635    3.44220326929153   -1.03240907373020
H           1.69972907757883    3.84281480203061   -0.63310825221805
H           0.95923962800039    1.03290118451872    2.19828750376181
O          -3.37438377311589   -0.83856312119032   -0.72450378653182
H          -3.98900979452346   -0.12400928856913   -0.89513596210345
O           0.86814043787282    0.12072032647509    2.55955836649540
H          -0.04952953397965   -0.12830266775822    2.37406402344924
O          -0.03780993431131   -2.28084445508370   -0.34342225245347
H          -0.46670387274079   -3.13135403130793   -0.24242159723523
O          -1.21289264188824   -0.50055188941515   -2.28662275229488
H          -0.63836998128110   -1.20107510244750   -1.95261297839803
H          -2.68082214445549   -0.76870269866796   -1.42262688986281
H          -0.90443945615367    0.31410385033867   -1.85020169640997
O          -1.34953171341687   -0.43142415180567    0.98495600988380
H          -2.23550634986370   -0.60553278231792    0.60100872309710
H          -0.57672560360742   -1.63064141039503    0.19058302760499
H          -1.02776132671686    0.35047718561866    0.48352927859121
N           2.12459976349462   -0.92840802527577    0.52597776862634
H           2.14794472379243   -0.05888961702975   -0.10179273506940
H           1.46658214817864   -1.61518989755855    0.10881018673565
H           3.05271468935627   -1.31937872452881    0.64161376010576
H           1.70519106882706   -0.59402329015045    1.45756008587787
