    26
        -50.46365726  Gyration_radius:  2.4473502822 Dipole_moment: 8.565
 S          -1.58922543573624   -1.77734814400955    0.48533827322489
O          -0.53038388806268   -1.42858481317575    1.42501306463873
O          -2.09119023309583   -3.10605915723638    0.59931179458597
O          -2.82140236329081   -0.80620603531563    0.85326452172350
O          -1.22386027934221   -1.35389621116689   -0.86956299660880
H          -1.49278018529839    0.18651914834751   -0.88021591314975
H          -3.34291381005290   -1.41796850786788    1.35929454058802
O           1.26615989408411   -1.22872716734511   -1.75750024933158
H           0.32943866078935   -1.45487995124195   -1.57213088109805
O          -1.57829841228333    1.18210714113389   -0.89258833744032
H          -2.50882770688761    1.35523097292889   -1.03897774910721
O           1.92888004096659    1.57212055600474    0.97288056886042
H           2.35672224814248    2.19717096657953    1.55803694569580
O           2.06438843534675   -1.28181165924000    0.73984131640506
H           2.23355544295208   -0.35339205165328    0.95142075432574
H           1.17335546336217   -1.46999361631383    1.09461223479911
H           1.72701596227531   -1.40669429073260   -0.89601207175642
O          -0.52514289076601    1.17537102991378    1.67191382945587
H          -0.55781222081495    0.19292472682173    1.72912178526266
H           0.99516023836648    1.44210661193701    1.32842581876766
H          -1.05357427441942    1.38276013826564    0.88505829702737
N           1.05590552903630    1.31312573196272   -1.56571185978724
H           0.03776054365924    1.46049045610945   -1.45312006786328
H           1.42937372501901    1.86620710083693   -2.32805156956060
H           1.52199756308510    1.53972850376257   -0.66213334150284
H           1.19569795298165    0.21969852069149   -1.73752870815936
