    26
        -50.46269066  Gyration_radius:  2.4063084982 Dipole_moment: 8.514
 S          -0.58084372410422    0.41523682525945    1.41752866466854
O          -0.41859914435593    1.87273247565439    1.42849360380546
O          -1.02746046572444   -0.14906838470779    2.65127443952875
O          -1.71550287644047    0.12208734928213    0.35205419544007
O           0.63783931045810   -0.21171944974864    0.88663394088666
H           2.11566592988749    0.44634061563560    0.51520665275822
H          -1.40439866227485    0.45427101943529   -0.51404545419849
O          -1.79765896326371   -2.62188371511092   -0.49637374957656
H          -2.32118536167362   -1.84110851872707   -0.28926255142608
O          -0.71551735052651    0.77271921034870   -2.06446364252157
H          -1.30648557791408    0.67066681030566   -2.81182106577986
O           2.85910147343073    1.03099040353610    0.23615353930606
H           3.34509633475288    1.24273111660201    1.03457219263026
O          -0.51056473929064   -2.64550117151871    1.87033968052952
H          -1.38848203235776   -2.86795000967984    0.36023535666720
H          -0.79908971380885   -1.80431181188631    2.27407745225368
H           0.42592244665421   -2.52780380691275    1.69522072861482
O           0.37546146064152   -1.43927552034646   -1.47980720545243
H          -0.39654564636834   -2.02470961710666   -1.28667285592713
H          -0.22563175722398   -0.12126331991859   -1.96383703403781
H           0.65432793092446   -1.12121547273827   -0.59970391756845
N           0.84996257245254    2.49938245721773   -0.67282277438310
H           0.92230553181865    3.48644508770542   -0.89278573169249
H           0.35691772708309    1.97704306907115   -1.41692821052218
H           1.78617432742014    2.06192677632056   -0.48689214480371
H           0.27919097978299    2.32323758218939    0.25362588088483
