    26
        -50.45123055  Gyration_radius:  2.47050472088 Dipole_moment: 4.665
 S          -1.63569724613876   -0.95152847411987   -1.47088712416530
O          -1.66399098141158   -0.25922316356147   -0.20155381748882
O          -2.85048385404560   -0.97830319138893   -2.19702875084094
O          -0.48246620296081   -0.33775381744581   -2.32044018834179
O          -1.11555385227808   -2.38288201355642   -1.24884214512430
H          -0.17838191566166   -2.27030684880949   -0.90381150090391
H          -0.29223705547750    0.61106362181687   -2.06644459764188
O           1.30229191866587   -2.01287124104198   -0.46403921376839
H           1.86320194961470   -2.37926528737741   -1.15069385940584
O           0.08861362477824    2.09339451650357   -1.65163542905735
H          -0.28308638674345    2.73489616109181   -2.25891127690989
O           0.98735122077542    1.14138754193575    2.16655347846260
H           1.45376896165185    1.28154783681873    2.99076691502269
O           2.00577251428689    0.50807576751527   -0.29296242086788
H           1.74551146327741    0.80561863456924    0.59929212455066
H           1.55129276658353   -1.04730013566556   -0.40171471871556
H           1.54843658460288    1.09233049324863   -0.90978578113365
O          -1.05087176293133    2.21985241649770    0.65481907209845
H          -0.34872935230682    2.01539650107671    1.29666613707726
H          -0.35462427135684    2.24746176267007   -0.75710140410307
H          -1.49812562447463    1.37100068720735    0.49194566597349
N          -0.19669268075073   -1.21540545376910    2.06636893087149
H          -0.85909071519331   -0.96226374693807    1.33305719523565
H           0.43308766149128   -1.89941859379478    1.66292809267888
H           0.54573054309093    0.23987403921802    2.22363348705939
H          -0.71502733712532   -1.66537801277109    2.80982112941560
