    26
        -50.45503912  Gyration_radius:  2.69075034787 Dipole_moment: 6.789
 S          -0.43921236251911   -2.74700107839110   -0.13182767728744
O           0.34446780711196   -2.28380907420445   -1.27496301699617
O          -0.80308897036526   -4.12420558546270   -0.14376801606670
O           0.58387006829755   -2.57969270068089    1.12352062431920
O          -1.51607996656195   -1.80616771890490    0.17331894599505
H          -1.92763893962134   -0.50505568135983   -1.56612554499502
H           0.58215007203399   -3.46287917081093    1.47741599943601
O          -0.73678094359710    2.72147678943723   -0.00596308588369
H          -1.56574807742509    2.99619045504664   -0.40023508058044
O           1.96137121410229   -0.44161998101550   -0.46487421919179
H           1.40520587137638   -1.17061985388524   -0.85150703968586
O          -1.22579076841044   -0.32812715640456   -2.19966947093241
H          -0.62114687469046   -1.08514095521473   -2.08682620817702
O           0.63222291641424    1.61758734276667   -1.91951738250488
H          -0.06066216035213    0.98428453109768   -2.20056729946323
H          -0.14551361079234    2.46259305536406   -0.76918685424595
H           1.34325152284010    1.06598067668234   -1.56948969037741
O           0.12783395611683    2.39936439703753    2.71776154712922
H           2.74150616699158   -0.86952774237108   -0.10990959487980
H           0.36238232822216    3.11886996561318    3.30442587404606
H          -0.10958540569599    2.79771632345830    1.86909638590884
N          -0.19351565673167    0.24649174279513    1.02042136262161
H          -0.81747068993664   -0.57854988058874    0.76466970185620
H          -0.56083937987080    1.13708176869588    0.62223136685549
H          -0.10242708974585    0.37831986450969    2.02682539871089
H           0.74123896285143    0.05643971678088    0.59474296441451
