    26
        -50.43966524  Gyration_radius:  2.59476736747 Dipole_moment: 7.691
 S          -2.49495943745746    0.13965383629737   -0.12767026340830
O          -2.13507160982074   -0.59314647841513   -1.30655386395269
O          -3.71222617912633   -0.18700502241336    0.52018060459337
O          -1.30132519187510    0.03323729219379    0.89017447386846
O          -2.46404850195974    1.65815800674056   -0.42810182042147
H          -1.63412135662949    1.87863818379105   -0.94024772368265
H          -1.15736309148965   -0.95606277048227    1.01148330234667
O          -0.90612876798743   -2.46588380058884    1.20998280629606
H          -1.36783415615511   -2.86034826128118    1.95198794186277
O           2.33463554863380   -0.73291386453920   -0.40106298297219
H           3.02236539004353   -1.14927897993339   -0.92312184596821
O          -0.23003425809094    2.35691425611095   -1.56677822482704
H          -0.27516034917208    3.30235887493268   -1.71937905638066
O           0.38728923308959   -0.35552588939696   -2.11661174054050
H          -0.51747108497780   -0.62977068756151   -1.86603856727972
H           0.31380664024494    0.59381253084361   -2.26984657862900
H           1.55771670952594   -0.64102312696464   -1.01887773733698
O           1.68268843611604   -2.22820230404982    1.72129700959977
H           1.94253663543074   -1.71922109790358    0.91845027014718
H           1.86327233136831   -1.65713136011601    2.46961547343382
H           0.06367807256688   -2.52073033936699    1.39534898311083
N           1.09004961870861    1.76974275136647    0.61881089073762
H           0.31712733334395    1.26367301291326    1.04203304276590
H           0.34659566876312    2.21136498504033   -0.74789553014089
H           1.47551409604509    2.40592869605078    1.30406358759553
H           1.79846825087022    1.08276157673353    0.37875755917756
