    26
        -50.45388711  Gyration_radius:  2.70465058807 Dipole_moment: 3.721
 S          -0.98969154582619   -2.14587884213819    0.68594627113810
O          -1.72235131668355   -0.89248378390764    0.55872780445025
O          -1.37366217446096   -2.97075119054978    1.78393823603074
O          -1.35021204451868   -2.98974949738328   -0.63912009507219
O           0.45136230435281   -1.89945226439142    0.55426762292982
H           0.78750887081538   -2.07122192939537   -1.13498680811995
H          -1.97403673188706   -3.60063332877926   -0.26473246529039
O           2.58123829571040    1.99726982359984    1.35683185910095
H           2.90165672024892    1.57502190427915    2.15566043824187
O          -1.31430547801183    1.67698195758539    0.13824433982065
H          -1.58220307421208    0.79801774233592    0.48819669515111
O           0.92353906724004   -1.90798855617584   -2.08941434423186
H           0.64552180361025   -2.71312718852235   -2.52831872033751
O           0.21748418604914    3.16724187618201    1.89586806108878
H           1.79787168080794    2.52584258362615    1.62073061059684
H          -0.00601809890677    4.09380167247146    1.79664425843501
H          -0.42833145993020    2.66786434494661    1.36845228701024
O          -1.21203817496288   -0.11792742027142   -2.00586877927900
H          -1.55580975845696   -0.54155630349937   -1.20275270999764
H          -1.70243851861940    1.70470096600556   -0.74394423999979
H          -0.52588537282068   -0.72218312833186   -2.32533765365957
N           1.10457918019968    0.48535027381023   -0.30424481806434
H           1.82449011634525    1.00201721321825    0.25296671968495
H           0.88869416825384   -0.45602860597806    0.13808109950176
H           0.20961502212179    1.02703516032290   -0.29465930888564
H           1.40342233351815    0.30783651095463   -1.26117636023465
