    26
        -50.46163607  Gyration_radius:  2.55599652695 Dipole_moment: 2.242
 S          -2.02854069891543   -0.91194848643631   -0.68540723770998
O          -1.20688456811244   -0.32151122280747   -1.74093479616772
O          -1.23085529993682   -1.76524145687849    0.16390065833064
O          -2.81720523085549    0.08457670191431    0.01456672571693
O          -3.08713387761851   -1.85119571866340   -1.41266140997355
H          -3.77882635340370   -1.23727310468219   -1.63811791061886
H          -1.80580893556367    1.10434032211296    0.72034752194386
O           1.91536957106512   -0.76965592498613    1.36514688279913
H           2.46476729855536   -1.39624435776060    1.83673980076662
O          -1.17223962177519    1.67411644145810    1.22752652922414
H          -1.68040768548034    2.42771721991277    1.53235426330849
O           2.04797807512315    1.47266930132522   -2.00669728534540
H           1.30085728010429    1.82444164501129   -2.49546804911809
O          -0.42745914137037   -0.69630546855094    2.44293779046517
H           1.03211138495622   -0.75561492310172    1.85056573097832
H          -0.71458811985755    0.21728835955413    2.28348832820398
H          -0.84453924982670   -1.21397062975503    1.72227466126753
O           1.49933190940402    1.90089136190479    0.54054726696637
H           0.54508508347732    1.90571080899543    0.72850201550673
H           1.83806727604821    1.09867718078058    0.96096520188518
H           1.93239984276424    1.78866487018675   -1.07440471738784
N           1.25937343331571   -0.94122283283953   -1.26859927332068
H           1.72814639251786   -0.07554576647650   -1.66037165898628
H           1.46051355758265   -0.99270562394714   -0.24406955589692
H           0.21241082033283   -0.78183993726269   -1.42588770337940
H           1.55807685748018   -1.78881877901190   -1.73724378945704
