    26
        -50.46373129  Gyration_radius:  2.44860270819 Dipole_moment: 3.674
 S          -0.52077293114901    0.83012546881691    1.72010828072359
O          -1.26041947090805    0.10667362715738    2.70763317611860
O           0.76144458073891    0.19831758869579    1.38747379007238
O          -1.24568315343797    1.18077502362301    0.51078594725534
O          -0.12449525384628    2.23741213593453    2.38065421604718
H          -0.28574884391862    2.09271241990869    3.30768514431272
H          -0.32261886827265    2.40077580976785   -0.18281582784202
O          -0.27403193997773   -2.24217771083343    1.35781005121341
H          -0.81754245177348   -2.30190072586743    2.14767304557384
O          -0.43849326339221   -0.74538087164954   -2.58036776349454
H          -0.95247910082902   -0.22620284812190   -3.20019584749441
O           0.42495097006794    2.95160817561150   -0.50207183628644
H           0.73623030211381    3.41671940090338    0.27697989851241
O          -1.94997636214519   -1.19557179250309   -0.52019835716996
H          -1.06982455424081   -0.98730789971839   -1.84058923082396
H          -1.45331131482359   -1.76055534250242    0.10213753860867
H          -1.90878619731378   -0.30096556914503   -0.13697963098239
O           1.55425633780933   -2.21753782225272   -0.98168993179282
H           0.20837724582614   -1.39795337753727    1.45493597290645
H           1.09485376526958   -2.49352877601452   -0.18194152147297
H           0.90491177191422   -2.25710501456132   -1.68949095622181
N           1.40894907585517    0.54972075096043   -1.13012034285899
H           1.21238261036319    0.27373458960328   -0.12732661346707
H           2.35001003029634    0.25927816638690   -1.37744402380758
H           0.71381544458692    0.04915240560541   -1.74881693759304
H           1.25400151119167    1.57918219773960   -1.15382824004619
