    26
        -50.45388711  Gyration_radius:  2.70443890934 Dipole_moment: 3.715
 S          -2.33521176277454   -0.45315764073006   -0.62686020483797
O          -1.71501921140094   -0.85598353130399    0.62890527670884
O          -3.24297829238987   -1.39665506079960   -1.19173104869219
O          -3.22233526192213    0.84441431637368   -0.27029960644720
O          -1.31538243994448    0.06983339187176   -1.54405240512367
H          -1.25054848919839    1.77011148618674   -1.22571720034664
H          -4.08277965232516    0.44177279358233   -0.25938777837783
O           3.09354160000168   -0.88514934429585   -1.46200140851316
H           2.91775372631291   -1.42071903729532   -2.23750334060256
O          -1.02995260731099    2.65378611296252   -0.86999951017687
H          -1.84700175960694    3.15335900701682   -0.90238550569828
O           0.63803913435436   -0.92969811956805    1.81397274652286
H          -0.24164896428371   -1.13514023558371    1.42574542506102
O          -0.76269960644929    1.48709490615947    1.64775686916291
H           0.45001290154723   -0.24831233920104    2.46970568703274
H          -0.86972627249732    2.13793411221090    0.93855821925485
H          -1.31401680896293    0.73591338896160    1.37487649373451
O           2.71367581516497   -2.40293556219463    0.72881275008965
H           3.35135325463164   -2.59882913594133    1.41680324430145
H           1.94282659947050   -2.00744794730443    1.16927821769308
H           3.08321125998973   -1.49868253509304   -0.69637037333608
N           1.02827806354955    0.52034296387300   -0.46929545378812
H           1.06042358065181    1.53640409424362   -0.41307242866990
H           0.12568382562140    0.26073019818579   -0.96573290832602
H           1.85617925630631    0.11844156670635   -0.96796949945298
H           0.96832213172602    0.10257214088984    0.48796374248504
