    26
        -50.45388723  Gyration_radius:  2.70452411939 Dipole_moment: 3.714
 S          -0.59917486759119    1.61321573790329   -1.75781679140511
O          -0.23644217778498    1.96423074223745   -0.39057691323851
O          -1.64330091911795    2.39497812169506   -2.33388380206016
O           0.71286871727524    1.91991410699829   -2.64210333632077
O          -0.75991850350064    0.15886840356239   -1.87553569727862
H           0.80503467173469   -0.43482103628076   -2.31685184684365
H           0.44134367347584    2.74003066260460   -3.03738329050921
O          -1.74176492646116   -2.69772480151931    1.47458301649770
H          -2.61567128837807   -2.74051723442273    1.08270145042158
O           1.71799857419820   -0.78461863918095   -2.30232479740514
H           2.15180807545674   -0.39719959959894   -3.06381086976778
O           0.25389375022713    0.84554787802473    1.94511407038088
H          -0.08779391605539    1.38955005716299    1.20079706791691
O           2.20555871199406    0.79787375972434   -0.06012937930733
H           1.46716533823991    1.38326389942048   -0.29423174260988
H           1.19813281919415    1.03987976244116    1.96146454197310
H           2.33229662301199    0.24113877274624   -0.84245606704583
O          -1.68850977884914   -0.65299157935042    3.22477175175333
H          -1.06918681132433   -0.01371507900429    2.83444101250818
H          -1.79816215634266   -2.03986887846628    2.20039045313520
H          -1.48401577675284   -0.69612526615005    4.15998231030975
N           0.09462861759527   -1.22869300221306    0.17271315736396
H           0.95275113491822   -1.64845632058337   -0.17936747741466
H          -0.35184070950388   -0.70074793395637   -0.63381621532647
H          -0.56813407575897   -1.93710890112046    0.56591118958269
H           0.31043520009930   -0.51590363267303    0.90741820468067
