    26
        -50.46648461  Gyration_radius:  2.45884502507 Dipole_moment: 1.144
 S           1.53644749294405   -0.01619763661314   -0.83884568751931
O           1.60446816369289   -0.00736354550188    0.61698682433173
O           1.84980972589055    1.24893390592468   -1.44391315135626
O           2.67442807025844   -1.02788218262594   -1.32667880026830
O           0.28039215971719   -0.60066460106626   -1.29174479220017
H           0.52599311228903   -2.26270702356729   -0.88046749813607
H           3.30163851165671   -0.45416118353029   -1.75578471302530
O           0.77246437060735   -3.09333098290132   -0.43502101610651
H           1.71385409945116   -3.19197158785869   -0.58972358032005
O          -3.14193701907718    1.16503558654203   -0.89145733093003
H          -3.49490426056290    1.03983018268962   -1.77273494573943
O           0.15374235044949    1.86097635702115    1.74207402523697
H           0.82815143661781    1.25824399778111    1.35094371611893
O          -0.61599238143507    2.28107667688901   -0.95067784468580
H           0.23232322397009    1.97317206873843   -1.31019313625632
H          -2.30367254776978    1.65260789832800   -1.00511142526189
H          -0.41336832757075    2.61894707928647   -0.07145179977613
O           0.06767936139838   -1.91831136744145    1.90884390195860
H           0.20088875366919   -2.61881654194274    1.24368535764756
H           0.76481563304483   -1.27474318077943    1.69604224366075
H           0.40587715777880    1.99454421608288    2.65720919740240
N          -1.42559255616816   -0.13414227963151    0.68695967789967
H          -2.40027876502119    0.00378783504309    0.39104590403287
H          -0.84546263411456   -0.26481234189067   -0.18149439493272
H          -1.07812595959471    0.72407227780688    1.15321811935520
H          -1.19363917218792   -0.95612362667043    1.29829115891878
