    26
        -50.46827086  Gyration_radius:  2.47298005206 Dipole_moment: 4.468
 S          -1.34684083840980   -1.06833991123936    0.07202447791804
O          -0.25901243003343   -1.26153925015832   -0.91239362245843
O          -1.52724857952842   -2.23503096139831    0.89754136712056
O          -1.05652721255443    0.13433618538982    0.85965849997563
O          -2.65466976469883   -0.83053750682740   -0.71810564230634
H          -2.57981937661504    0.03573332736293   -1.20942419301552
H          -0.30611147705934   -0.53520170877832    2.70620604506731
O           0.04016028557134   -1.43193467711595    2.80138177052363
H          -0.61638438859075   -1.95706830275790    2.28698495237219
O          -2.38347458343386    1.32245381252099   -2.14642381349679
H          -2.88737707276536    1.17847544567046   -2.94956982621492
O           2.76380085204358    1.07687609573148    0.84639746413562
H           2.88713513901164    1.45417495250006    1.71913228550384
O           0.15495111354090    0.81840456385483   -2.51508637742643
H          -1.42284978317929    1.21699425887588   -2.39487955291213
H           0.51192357167115    1.39815312751382   -1.82376124141528
H           0.07133575729584   -0.05397343161465   -2.07741192059954
O           0.42781197982438    2.02872427531555   -0.05024029896391
H          -0.08273605683357    2.83488695177292    0.03945470874831
H          -0.16388779119702    1.29862958875888    0.28917520302622
H           1.98728739045399    1.53126940973312    0.45564405507598
N           1.71660563422078   -1.40316026302899    0.76325899123734
H           2.23877467397629   -0.49358560935855    0.75664395393297
H           0.97702975820375   -1.38850740618755   -0.01019594821755
H           2.34435363859280   -2.19070479583613    0.64081544885891
H           1.16576956049570   -1.47952816065074    1.67317322352676
