    26
        -50.43624564  Gyration_radius:  2.70556148218 Dipole_moment: 8.442
 S          -2.88357763767181    0.54386499743427   -0.84550307760635
O          -2.49170651596248   -0.05472604791685   -2.08752195336780
O          -4.22040415073867    0.38966989620443   -0.41056087919587
O          -1.88761278421754   -0.01002869621841    0.24734672861218
O          -2.53621163369479    2.06238931557513   -0.84821016981378
H          -1.57720696332511    2.14729753057239   -1.01721664645226
H          -1.44935811462308   -0.83133764644314   -0.20734490147512
O           2.44434166145700   -0.49666176780430    1.07082290593571
H           3.15760820168050   -1.00802568059873    1.45442474227656
O          -0.82188984199995   -1.87501924258922   -1.06233007934064
H          -1.39271646021301   -1.64364252745752   -1.81127016627219
O           0.07848954801738    1.65093256189130   -0.67721072511481
H          -0.36858481835409    1.06414514922465   -0.05085131889238
O           2.18520008439057    2.22745286517023    0.87641643362307
H           2.35090853001222    1.27889738724194    1.03582649904687
H           2.98812096159565    2.58961461718736    0.49903749947297
H           0.78859414961032    2.08505482610449   -0.15669489921301
O           1.43089595734627   -0.59488577348408   -1.51800897397187
H           0.07551884409563   -1.50902261927558   -1.30031574366610
H           1.02293356179790    0.28787744674265   -1.53384306716594
H           1.94672953348879   -0.62392723192357   -0.69541830896424
N           0.14530878908517   -1.58550421530877    1.86606384519650
H           1.59060095943979   -0.88358795085051    1.42365837324765
H          -0.10454140194735   -2.21480788655090    1.10988269003869
H           0.11374278537658   -2.11304945187087    2.73012057925876
H          -0.58518324465023   -0.88296985504491    1.90870062379254
