    26
        -50.46827123  Gyration_radius:  2.47278835673 Dipole_moment: 4.475
 S          -1.27042760729679   -1.15654103956104    0.10255574017332
O          -0.10290853588809   -1.36997713425580   -0.78121740093974
O          -1.43066284924974   -2.23955696961201    1.03884987779837
O          -1.12134022148429    0.14118494143425    0.76907512043602
O          -2.53014164867123   -1.10384743229503   -0.79291523956322
H          -2.48061135079482   -0.28895617493016   -1.36814253662350
H          -0.46171589214305   -0.27196962298538    2.73256488120904
O          -0.06212854864110   -1.12638563124902    2.93983039449473
H          -0.64278876398706   -1.74776369081489    2.44133017213685
O          -2.30596790237662    0.90596837895590   -2.42390588452610
H          -2.74198060479653    0.64309697435452   -3.23658248698554
O           2.61145513142064    1.37222093079434    0.89717633240775
H           2.64536679324199    1.84991525076780    1.72773159840439
O           0.28002934833710    0.55448996133949   -2.57439835965925
H           0.22520633658672   -0.27063642681546   -2.04926935596549
H          -1.32553084241710    0.84541563587742   -2.59880274529494
H           0.54571291549961    1.22951029384422   -1.92994187343026
O           0.28574388877428    2.03941241676964   -0.24929570653032
H           1.83609549063050    1.72143751915998    0.40871632330852
H          -0.28912588730086    2.80509210625330   -0.29170323130846
H          -0.27517577303858    1.30552074919611    0.13164297042152
N           1.75113839118224   -1.17738856401378    1.02308393513209
H           2.20598947625856   -0.23525843242740    0.94957017489372
H           1.07037967185131   -1.30270163271117    0.20676808648794
H           2.44102371438309   -1.92120843808247    1.02888772393414
H           1.14236528987009   -1.20107396893197    1.89839148965381
