    26
        -50.45332192  Gyration_radius:  2.73219571441 Dipole_moment: 4.591
 S          -1.19948037298582    0.11987447183234    2.58507525113320
O          -2.60603030477417   -0.06991314621944    2.33035456280305
O          -0.43494295835012   -1.12355895994010    2.45510696500885
O          -0.60598934029308    1.18671782422695    1.78474940061746
O          -1.05514401750092    0.58115562093553    4.10000248386159
H          -1.70104022269049    0.05175148424655    4.55932960264950
H          -1.64155418752422    1.08123683374746    0.43137387704822
O           0.82880618797606   -1.17443205811810   -2.71863548395392
H           1.00445902848703   -1.29589608265494   -3.65245020354581
O          -2.17195665432085    0.62434132245061   -0.25805229239319
H          -2.92258617163620    0.29646267671489    0.25187638210337
O           1.38157700299236    1.16096879717931   -0.00961303606363
H           0.83134681554601    1.36713784856152    0.77096956566812
O           3.06776883224632   -0.56110602178487   -1.29365718487282
H           1.69489354582649   -0.99773050822799   -2.30172816574675
H           2.69973491394905    0.19893722190328   -0.81133177559329
H           3.66660887458231   -1.00376067000064   -0.69102017183004
O          -0.19608682612601    1.39979650044682   -2.16284155987431
H          -1.07540178713546    1.32769575348405   -1.77325051490554
H           0.90380523230743    1.53916788677962   -0.78121947265371
H           0.03365383865808    0.51560301018585   -2.49400285609546
N          -0.09441245216226   -1.08498837311554   -0.08334769357061
H          -0.98955084329025   -0.62128619130160   -0.35863072015599
H           0.12145867795875   -1.86983971058561   -0.69216520133489
H           0.64789678036665   -0.34011017253017   -0.14741009232127
H          -0.18783358217676   -1.30822533837693    0.96051833405275
