    26
        -50.45565608  Gyration_radius:  2.61983375811 Dipole_moment: 8.216
 S          -1.01811469155660   -1.16225509245584    2.37695350688817
O          -0.05056566245201   -1.63188675148342    1.38552010696527
O          -0.90708439927934   -1.75149132172529    3.67048987454001
O          -0.62900146190294    0.40854225002553    2.59159936162280
O          -2.35514733717750   -1.10016039180885    1.79656066637688
H          -0.05867365048794   -2.12120971944371   -0.31687355979721
H          -0.23853895866299    0.37127849577942    3.45857301544487
O          -0.18282849439505   -1.95589672689639   -1.27239575302132
H           0.64886376454090   -1.56540982625481   -1.58573160354889
O          -0.05539449095675    1.89388706748480    0.22161545535720
H          -0.37256581267044    2.18688081294347    1.07945507736836
O           2.03476325735762   -0.42682521046419   -1.97538012610645
H           2.83539447943582   -0.54092114737837   -2.48851653674784
O           0.96788813839812    2.03961165284502   -2.33412969269002
H           1.68256002205236    0.46055360269133   -2.19345185148832
H           0.28249776776466    2.34910292771902   -2.92738811862295
H           0.65665773200273    2.20476016221544   -1.42876467116615
O           1.77121972774268    0.14255653861124    0.74668357713829
H           2.06355499051343   -0.16428161065707   -0.12584174803205
H           0.70393500344856    1.26806341114433    0.45186868706427
H           1.17487968335039   -0.56096090871006    1.08972888227047
N          -1.80696979155065   -0.04863169501013   -0.46976374092136
H          -1.19062918159403    0.77056948676287   -0.25409511201869
H          -2.11269460909564   -0.48340945677769    0.47458015569808
H          -2.61609734463155    0.21757049253691   -1.01941552773999
H          -1.22790868019613   -0.80003705170071   -0.95188031485618
