    26
        -50.44109290  Gyration_radius:  2.58400935004 Dipole_moment: 5.866
 S          -2.11457793016008   -1.08471940015560    0.78174995334593
O          -1.17757797381709   -1.08495465393306    1.86527643426692
O          -3.48776189875463   -0.90288157551011    1.08019854437936
O          -1.64482303305775    0.01148776588184   -0.25152538178548
O          -1.93014023083163   -2.35817149876775   -0.07339216373960
H          -0.95487668059263   -2.49267173911222   -0.25321706782667
H          -1.62126562273142    0.88129067521985    0.26057294741095
O           0.54870969855350   -2.65581023276697   -0.79861286309317
H           0.51957487992892   -3.36343133369724   -1.44558693795079
O           2.13325176296695    1.10832704924603   -0.34080592709127
H           3.08027715759832    1.24651924176144   -0.31283127127435
O          -1.51969778878628    2.26221258411938    0.93532326231875
H          -2.32006879952949    2.78274854838769    0.84405599530269
O           0.49266612043747   -0.31653957561389   -1.98432698841871
H          -0.34990694263288   -0.10614187614315   -1.55289711731951
H           1.16300051547531    0.21902065967496   -1.52015611293241
H           0.61868078753240   -1.80547667195782   -1.31545543404829
O           0.34582299887064    3.08333685926639   -0.75455042169395
H           1.05731324488932    2.44695030757035   -0.53392640106372
H           0.08567759941638    2.88267091763309   -1.65616197319460
H          -0.81794687966660    2.69623473987747    0.38855106754616
N           1.57883075513416   -0.75050376312104    1.39840389712438
H           0.58620531642606   -0.72303316624481    1.64463485947300
H           1.71879172865527   -1.63993649974752    0.93050167104593
H           1.91214965795811    0.43834658562394    0.39644875079877
H           2.09769155671888   -0.77487393749283    2.26772868841192
