    26
        -50.44109289  Gyration_radius:  2.58391658882 Dipole_moment: 5.868
 S          -1.53696637484420   -1.93414027272553   -0.39729285426608
O          -0.80572487782817   -2.17768463596137    0.81020190870784
O          -2.88358946339947   -2.36936687337286   -0.46718949395480
O          -1.46201110942413   -0.38608190646552   -0.69341519699766
O          -0.74827239547513   -2.47909144018474   -1.60886110745626
H           0.20681675727449   -2.18934035804082   -1.53393242255690
H          -1.85797888796551    0.06922904526908    0.11617246711356
O           1.68866833216468   -1.57401892550926   -1.63013781009012
H           2.02721593383978   -1.83326828563162   -2.48943872472336
O           1.49776538745101    1.73930554435169    0.79159298564542
H           2.29165630341655    2.13610716127807    1.15079352887219
O          -2.41378264921871    0.88151565542067    1.30069974374280
H          -3.34421272864916    1.09362919354574    1.20458002866623
O           0.78529856014324    0.88773317723906   -1.69625383525028
H           1.45057840089741   -0.60795593937778   -1.70168021926192
H          -0.10828974676149    0.57670152280524   -1.48388167335043
H           1.11772464891907    1.30110982694634   -0.87756165511860
O          -0.89697438923447    2.97567080656479    0.73199007042673
H          -0.95304292433762    3.17924096002290   -0.20413441380734
H          -1.90509428182891    1.72645409588374    1.21524376267657
H          -0.01212992493449    2.57687285579976    0.86600346286629
N           1.59027397884811   -0.80255587229313    1.35535922310219
H           1.50013599943653    0.76144684716203    1.08361746532753
H           1.97736521757287   -1.09061655987013    2.24566494445778
H           0.65724007480082   -1.21677288645911    1.28819168492708
H           2.13733013910765   -1.24412273642547    0.62366815028292
