    26
        -50.44877572  Gyration_radius:  2.46893575019 Dipole_moment: 6.595
 S          -1.83855575378111   -1.20963677504156   -0.24780580851297
O          -1.50573935003652   -0.26636585851289    0.79418124952499
O          -3.20765530808584   -1.37900258009369   -0.55503088629027
O          -1.02220184188157   -0.79958350144293   -1.52213247083776
O          -1.19264562011497   -2.56623637290792    0.08204458298499
H          -0.23297851662954   -2.43564513917272    0.35438489873775
H          -1.41072440909236    0.06577219786294   -1.89353026013815
O           1.32033315676805   -2.31594831172890    0.61822635002525
H           1.71196851180264   -3.14334186945777    0.33111365731031
O          -1.78652540173938    1.48353072647384   -2.30295458224532
H          -1.21131028160603    1.87203417971104   -2.96596796468077
O           1.64701898979166    1.73427189545328    0.31349851056281
H           2.38693256069565    2.29131317916013    0.55688964834002
O           1.72350293765807   -0.51258343048029   -1.21789638132866
H           0.81859898333342   -0.58494122674038   -1.55562896118082
H           1.77303939152228    0.35258737551637   -0.76577347730448
H           1.58454022158210   -1.62955279158603   -0.06108522282540
O          -1.04879593978647    2.30115438658250    0.04835190984358
H          -1.59169976779270    1.95007676716982   -1.44002191528232
H          -1.34405605003291    1.48128806782784    0.48236487394003
H          -0.07713087488654    2.26691069960132    0.08599506647547
N           0.90668264719944    0.16140244530754    2.28810140825997
H          -0.03941485416713    0.00134832447145    1.94263068756437
H           1.37849295376853   -0.73479825994398    2.24952691885944
H           1.41996269015327    1.17449205706224    1.12239716600384
H           0.83836093534126    0.44145382492927    3.25812100219445
