    26
        -50.44974525  Gyration_radius:  2.55354868707 Dipole_moment: 5.644
 S          -2.19852412822157   -1.48251015348718   -0.32412482560649
O          -1.66856773190547   -0.53770933050984    0.63604158677992
O          -3.42786106322467   -2.10543623784952   -0.01365978899487
O          -2.31885561041359   -0.76747765720259   -1.69535304917140
O          -1.12167220064776   -2.57283072689344   -0.56625616928287
H          -0.19494833909204   -2.21291482415960   -0.45401786571371
H          -1.61900826012138   -0.06575267950770   -1.81201084711813
O           1.31141120899991   -1.79279309870065   -0.14557366648481
H           1.82914238586440   -2.58973115588246   -0.02020364813811
O          -0.64500810662675    1.19482523783752   -2.01648827260614
H          -1.04322551704779    1.77037409169128   -2.67168107401349
O           1.62025677560700    1.97450421586230    1.06131646887004
H           2.13194527991565    2.78414992786132    1.05558105121410
O           1.96983027185965    0.66626145244330   -1.22086814013261
H           1.87703071490347   -0.26235017952927   -0.95419184208157
H           1.15066295590509    0.87194897357927   -1.69666250613413
H           1.83961359977269    1.50105930042074    0.21728932547759
O          -1.02032948539281    2.06492214486156    0.36757449183362
H          -1.38304594450184    1.20584134008503    0.64911656052091
H          -0.12049456395736    2.11078290824801    0.74848642924101
H          -0.79759583072800    1.63262149047502   -1.11474354994395
N           0.78494717363011   -0.66010464342334    2.11621514950491
H           0.91659474987639   -1.04791673906841    3.04048167503984
H           1.17457453359304   -1.37156411106231    0.78231179696998
H          -0.21333313793723   -0.58899112783797    1.93068747802334
H           1.16646024989074    0.28079159175106    2.10073323194437
