    26
        -50.45730964  Gyration_radius:  2.44862606167 Dipole_moment: 7.972
 S          -2.31172363902378    0.49462149908527    0.50979033650824
O          -1.11376813828826    1.23639755100462    1.01154970978429
O          -3.51795670866334    1.22428885758949    0.67687666688190
O          -2.04078800633764   -0.01007115469990   -0.82943329960555
O          -2.34841879114379   -0.80092792018348    1.42875592709236
H          -1.74941456828070   -1.40402116399358    0.95675872623058
H          -1.00110268640391    0.46495732073098   -1.88689609510649
O          -0.36855737992794   -2.34433779582087    0.39917268298211
H          -0.69716873023831   -3.18736901751493    0.08538122576659
O          -0.28027517308908    0.70899762493623   -2.53509581197401
H          -0.70928024382160    0.77544138971710   -3.38875107312707
O           2.54310759094388    0.55371308558388    0.26754853420487
H           3.40059290699352    0.97175275902048    0.34759330784991
O           1.19507018060149   -1.27603291438518   -1.39791469834000
H           1.83616344992265   -0.74432408754664   -0.90387827627934
H           0.16589829440360   -1.95845797365396   -0.35478629149721
H           0.68862319865744   -0.63590616723710   -1.93386141281166
O           0.79372627704657    2.24832494038818   -0.56320353120265
H           0.04222545781456    2.06612415866257    0.03845999347252
H           1.91222521273203    1.26676615711074   -0.07936535380221
H           0.50208394510040    1.89814406575415   -1.42269784608530
N           0.63305893254683   -0.32777572088770    1.94412201159858
H           1.50929045376468   -0.04846814905793    1.45136137377476
H           0.34863690690855   -1.26730323077787    1.63707654365733
H           0.72882465482448   -0.28039995661325    2.95186058921654
H          -0.16107339704510    0.37586582278986    1.58957606081095
