    26
        -50.47284622  Gyration_radius:  2.45097515966 Dipole_moment: 3.007
 S          -0.27802005800147   -1.27411755959622    0.26772076647850
O           0.13173586262831   -1.07154810607220   -1.12197614085772
O           0.36325662068077   -2.58730399413134    0.77446187785184
O           0.25730700862212   -0.17429548544954    1.10298032656994
O          -1.70737685168195   -1.38250533255232    0.40180951008702
O           2.68708259630099   -0.69757755698593   -1.40975088431025
H           3.02588052603255   -1.20890145364517   -2.14566723119462
H           1.70933862426778   -0.86242094921205   -1.38314005733272
O           1.61691692100954    1.68825009748703   -0.36194177295983
H           2.28426275510519    1.17233933546450   -0.83100221228429
H           1.20160893707435    1.05765684178604    0.25419422483384
O          -3.78851256729571    0.11241830194120    0.96114978184741
H          -4.41481309500020   -0.02092808651724    0.24707147233512
H          -3.11940084925452   -0.60107892596508    0.86272886440623
O          -0.67192027746604    1.40928473333962   -1.73114370974936
H          -0.53382269996544    0.44060385242420   -1.71382338357445
H           0.20942791030756    1.76360293296075   -1.48547668796758
O           2.66203649271681   -1.47680261805196    1.18194976647821
H           2.91863510569868   -1.21092907167038    0.27645819637221
H           2.14826377311023   -0.74014523498844    1.53782075021675
H           1.30782140073698   -2.34030542229915    0.96502964257346
N          -1.61844617972063    1.63188834380031    0.68737246904964
H          -0.90951619559843    0.94990587322736    1.06426265718389
H          -1.52946106939610    2.53946564427319    1.13239557831266
H          -1.38159795570048    1.67407773452461   -0.36085390412306
H          -2.57068674512375    1.20936612575629    0.82737008966358
