    26
        -50.46846776  Gyration_radius:  2.39956011982 Dipole_moment: 5.640
 S          -1.46352142573235   -0.82334994526326    0.70265977225058
O          -0.66269667848432    0.00863410385922    1.63355449723376
O          -1.84469530560275   -2.07614920521815    1.29652901558327
O          -2.74508915639969   -0.00053314489242    0.37140831845929
O          -0.71938637621481   -1.00012649384734   -0.53917551315221
H           0.16944661416267   -3.24066797237137   -0.48070493483104
H          -2.43981215370809    0.77405351922212   -0.15935266478557
O           0.35515027151699   -3.29286473744401    0.46177481463891
H          -0.49169810235641   -3.01060967474032    0.87953633835076
O          -1.81691310970653    2.15306399176209   -0.89066860998225
H          -2.44131130596339    2.86400124963810   -0.73587958340618
O           2.21361418515108    0.85460229721496   -0.77193392162591
H           2.99834540107882    0.99397211948841   -1.30331667646446
O           0.14460424733733    0.67562950519944   -2.33437800058627
H          -0.23000649320979   -0.05172642703118   -1.78697114390472
H          -0.49441881467456    1.39055483307582   -2.23190613240531
H           1.44879320111612    0.79857341225144   -1.42011953593831
O           0.23748491941315    2.31436166888204    0.71272909488115
H          -0.10204122865743    1.53333148733216    1.20206017605835
H           1.03892064507987    2.00951092680131    0.26546238078071
H          -1.03233984672671    2.33203121310545   -0.29968899006311
N           1.61608835393964   -1.04752731595501    1.09018919881158
H           2.31324797292080   -1.13457186206744    1.82231869957403
H           1.26784950513748   -1.99735569401814    0.76393008753166
H           0.72137171421901   -0.57089998253539    1.44829579329641
H           1.95901294636480   -0.45593790244289    0.30364753969997
