    26
        -50.45788902  Gyration_radius:  2.41148226478 Dipole_moment: 7.665
 S          -2.22751542611508    0.41907039798778    0.07315730163526
O          -1.42284738420474   -0.45350285550020    0.98063228508232
O          -3.22581637153095    1.15080173369149    0.77662262339687
O          -1.16803523325115    1.43459508498929   -0.52708993240929
O          -2.63928148722833   -0.34619829038071   -1.08955733556405
H          -1.35952410617260   -0.33540811454328   -1.97685201078528
H          -0.70179217955126    1.89749316027862    0.20403197287840
O           0.45999033782421    2.47634578468009    1.25208995752468
H           0.07585963294313    3.12921385063110    1.83892342904345
O          -0.49193501009003   -0.48604969742159   -2.45830442404268
H          -0.68132235718987   -0.36294794642921   -3.38917305254865
O           2.28494719331972   -1.10517061198683    0.50462684820515
H           3.23250013292705   -1.24032842779652    0.47677172973967
O           0.69180838642568    0.17451813919982    2.47306728812085
H           0.63142212626287    1.66673066380110    1.80794434904497
H          -0.17457411117695   -0.10263308629267    2.11171685844340
H           1.34984269119541   -0.34089977017175    1.98435216472912
O           1.59294194898082    0.86935553136941   -1.05760126292863
H           2.09398138462932   -0.32205117748188   -0.08641677731474
H           0.81326266257400    0.58819674897204   -1.56709319678714
H           1.30008760923769    1.60787892648529   -0.51106486627357
N          -0.07380934132606   -2.10449896749056   -0.37434826938864
H           0.89298352450909   -1.98988123033558   -0.01966013236432
H          -0.39470475512586   -3.06410618740190   -0.32411056782524
H          -0.72152483101895   -1.43516803504999    0.23585395248994
H          -0.13694504682727   -1.72535562379523   -1.33851892210218
