    26
        -50.45123044  Gyration_radius:  2.47042195387 Dipole_moment: 4.655
 S          -1.36664881852875    0.78020756577708    1.80840073880061
O          -0.20024956746834    1.27237162261774    1.10940191992576
O          -2.10710057836307    1.73694347214468    2.54332424943051
O          -2.26645269833386    0.04484383092856    0.77009604429829
O          -0.94775114537830   -0.38551602934821    2.72167831974277
H          -0.60633608489978   -1.09776838922779    2.10007336161890
H          -2.13108883531931    0.39289698171335   -0.15797184407707
O          -0.18093091567696   -2.19149040855081    1.06399462282216
H          -0.80856626139855   -2.91206122774336    1.14879646956672
O          -1.90140278094573    0.86721812662842   -1.65385585453680
H          -2.59277911620850    1.46385254581271   -1.94451280990448
O           2.02260700259259   -0.07059368573814   -1.69449313942376
H           2.83437807598531   -0.31948454386617   -2.13676698043215
O           0.34684518585241    2.09702156515018   -1.39612376553255
H           1.02271404454752    1.44502963228035   -1.65148944441402
H          -1.04281532257025    1.39947265050385   -1.64156257426880
H           0.28500196350946    2.02922195387409   -0.42735667799151
O          -0.31575616079359   -1.47190990329954   -1.45405877372145
H          -0.23573069172712   -1.89941218178385    0.10994469813611
H          -1.00995721541273   -0.83015688580108   -1.64711981212726
H           0.52654327431390   -1.02276913970800   -1.65673829009226
N           2.19536213068373   -0.28833195645554    0.92995229684216
H           2.97960975917824   -0.01862780599365    1.50971851784590
H           2.18356402929424   -0.15606130843745   -0.70554927232209
H           1.89332088228382   -1.21181083713327    1.21848249146556
H           1.42361982477587    0.34691436567049    1.13373549835995
