    26
        -50.45004754  Gyration_radius:  2.5382704379 Dipole_moment: 6.004
 S          -2.03587689224720   -1.64790760940291    0.08810518709538
O          -1.39130652920499   -0.64972947412509    0.91333598482104
O          -3.17197612300778   -2.29963836170714    0.61815507999168
O          -2.39615090823913   -0.99432410543965   -1.27186118799606
O          -0.97316427740614   -2.71421830889984   -0.29031935797745
H          -0.07146919183516   -2.29622652836420   -0.39093240750366
H          -1.86428377542478   -0.16847501557879   -1.45623746240140
O           1.42637438187694   -1.74073834634100   -0.42753122633501
H           2.03711921355344   -2.47939416888247   -0.43007849467007
O          -1.08683499897549    1.14367906604567   -1.92014028335877
H          -1.24470104709089    1.27559144266297   -2.85633367668593
O           1.48849115805470    2.17518658557970    0.81208075438423
H           1.75318365745324    3.09561599326272    0.82423420157035
O           1.44227918024956    0.78396697315818   -1.53162523713803
H           1.52446152616276   -0.14868272564659   -1.27524634141327
H          -0.09361994867001    1.00749628865429   -1.81298910895823
H           1.59773556210877    1.29504566044279   -0.71128550594864
O          -1.14685143256867    2.03363187568325    0.72525340527229
H          -1.31873518490640    1.10606077218721    0.96731286717787
H           0.49499615109438    2.17162585065967    0.85603480654367
H          -1.32722960389264    2.06602260298061   -0.22325277398027
N           1.31678240036893   -0.58029662621573    1.87095872387499
H           1.64940822743640   -0.93393870203000    2.75783500141006
H           1.46281319918544   -1.31638367685456    0.51069865746949
H           0.29879549274928   -0.56420060022553    1.88767371328844
H           1.62975977317328    0.38023110839732    1.76615468146902
