    26
        -50.45730960  Gyration_radius:  2.44896753738 Dipole_moment: 7.977
 S          -1.48885669371150   -0.61204869251625    1.80705172503937
O          -0.34473171932080    0.34839064922627    1.88493014355066
O          -2.38175918246135   -0.49120825395183    2.90405697457978
O          -2.08308622071962   -0.54760214715679    0.47874568525331
O          -0.77668662699241   -2.03115756808500    1.86193837455114
H          -0.55326330620366   -2.18470903377940    0.92817923748650
H          -2.02182638784167    0.58081912928899   -0.59238540013700
O           0.25036102359699   -2.30668736340709   -0.63407682987800
H          -0.09921213261475   -3.07640765074065   -1.08411729124659
O          -1.91665589430338    1.26376464835974   -1.31478405078056
H          -2.79595314549344    1.41009245695371   -1.66488755634070
O           2.03784200395799    1.38534262116486   -0.87957766640283
H           2.69035961742225    2.05768692773476   -1.07609300932327
O           0.16541951336300   -0.23588768477913   -2.22090993032918
H           0.13016590041996   -1.53905430522733   -1.26612800851006
H          -0.63764050394050    0.28688161907544   -2.03251766699214
H           0.90563157280773    0.32849608235111   -1.95355482104245
O          -0.02192034282591    2.43665184432309    0.24902654418935
H          -0.18653360686926    1.80848929680399    0.98273440170309
H           1.25289858784427    1.86765971544542   -0.45745695096276
H          -0.75172611538972    2.27370206483170   -0.37329392282884
N           1.76257721932677   -0.62100030701475    0.89161399901417
H           2.47391082518958   -0.84338690107356    1.57825219880414
H           1.46030756787097   -1.45937006555591    0.37811199451525
H           0.84956250254382   -0.20723130871395    1.38874502898267
H           2.08081555435171    0.10777424644403    0.21639681711169
