    26
        -50.45730949  Gyration_radius:  2.44931641178 Dipole_moment: 7.989
 S           0.06797335738128   -2.04205782503268   -1.29860408535027
O           1.23370019290819   -1.17702390836489   -0.93795802288382
O           0.36384379428940   -2.95151364890491   -2.34772701673380
O          -0.20951643354353   -2.85416864168564    0.03852569454020
O          -1.11358779962471   -1.20930364556574   -1.47765650030545
H          -1.22739464676854    0.31337463427682   -1.78213151583452
H          -0.78166570369242   -2.24441927131247    0.53477873543769
O          -1.43392010466248   -1.03189477972860    1.63232014356862
H          -2.31150181611374   -1.31375879576520    1.89234047958417
O          -1.30769119555738    1.30355330700903   -1.89408069109789
H          -1.95591879256267    1.43570134111312   -2.58654174616882
O           1.23954912980298    2.03784787424380    1.07644131953885
H           1.80806757523896    2.78232030822325    1.27383150180248
O           1.37028891468095    1.44700558861651   -1.42492880433605
H           1.45262628136145    0.47123547522684   -1.39257179662077
H           0.46986844859425    1.59947740289477   -1.76014027291517
H           1.32484268378689    1.87304492332096    0.08039411567508
O          -1.50264946745098    1.44619826579635    0.81613168235499
H          -1.53784799381502   -0.10363434717315    1.27054239581964
H          -0.63215879573114    1.81463290960199    1.02670813428372
H          -1.56201305167580    1.46715823854105   -0.15840598546122
N           1.26217410650656   -0.61539709234336    1.52199332343608
H           1.35405526479738    0.42360381290664    1.54159558348242
H           1.29123754516226   -0.91021014288895    0.44325258306410
H           2.00321369752406   -1.07501150571923    2.03830691205260
H           0.33442477916872   -0.88676047729322    1.87358384306466
