    26
        -50.45004759  Gyration_radius:  2.53825669114 Dipole_moment: 6.005
 S          -2.27963446442441   -0.97871657460599    0.84477506527677
O          -1.13333811139675   -0.26059553519732    1.35761708190090
O          -3.31321060629629   -1.29566052441528    1.75454058010025
O          -2.86271942744480   -0.17494458703828   -0.34702040440912
O          -1.76793030991953   -2.28773112187632    0.18601624013366
H          -0.86977222815184   -2.14897148977165   -0.22860529668259
H          -2.20417003273116    0.46492864904699   -0.74153379323089
O           0.62427057785591   -2.05844431992071   -0.78817232835548
H           0.95278558245280   -2.94313006818492   -0.95570533796280
O          -1.27535256480061    1.51129835283700   -1.50573454527869
H          -1.68905622709934    1.73291851105054   -2.34149803435910
O           2.24255297398494    1.59663899074744    0.15888319917179
H           2.75391655386343    2.39713688063220    0.03601016382277
O           1.01415230603642    0.40369415421193   -1.96259037649732
H           1.57617580049901    0.80322889883252   -1.26785179955449
H           0.89886755644255   -0.52396525347558   -1.70097270600898
H          -0.38997156447385    1.08353251227653   -1.72823191225205
O          -0.18996715333891    2.23864850694973    0.96127222336761
H          -0.53570739805442    1.39078615611684    1.29328867887656
H           1.36565413769555    1.88210651019983    0.53096944500342
H          -0.65732480436749    2.37229359883390    0.12644148092432
N           1.63258817015817   -1.03859377043657    1.35307021876941
H           2.15987172065194   -0.20792692476027    1.10100078134796
H           2.12263217292170   -1.51999236709702    2.09493320907571
H           0.73088671561196   -0.72550394044759    1.70764131158002
H           1.09380062432705   -1.71303525450779    0.06145687524135
