    26
        -50.46846771  Gyration_radius:  2.39949050196 Dipole_moment: 5.643
 S          -0.41866205410297    0.98712541361981    1.47100401985490
O           0.21723990054346    1.71474465345997    0.34569534210669
O           0.14155345094591    1.36746043198996    2.73946357586416
O          -1.92964680206619    1.36822959812187    1.44141213264048
O          -0.32056358181181   -0.44756356890444    1.22752568447189
H           1.43249119854907   -1.25887565017790    2.66789278563028
H          -2.29545984999028    0.96080464051186    0.61980804797992
O          -2.79075704013520    0.39625070816478   -0.88378526391295
H          -3.53152726192736    0.93790516595502   -1.16152098720781
O           0.94487641909359   -1.32495573249401   -1.89097864811250
H           1.24137497195296   -2.06314849431092   -2.42459278745192
O           2.01867394381148   -0.49756254866206    2.61904091787134
H           1.42647276950708    0.26291635682891    2.82453886514137
O          -0.58475465244559    1.09497630321211   -2.09301267009425
H          -0.26039564135583    1.47713254337125   -1.24833498868396
H          -0.02981027012248    0.31956515790666   -2.25464644984392
H          -2.01264728805757    0.67176414726871   -1.44556709808082
O          -1.24554981155569   -1.98575101203604   -0.65820929695819
H           0.09912579375326   -1.63028904117615   -1.44413298692535
H          -0.94690628846955   -1.52605464750469    0.15939116867227
H          -2.02218670801479   -1.48354396359541   -0.93141360758316
N           2.20933721450827    0.11897751772484    0.04808987663822
H           1.84398595730833   -0.57530581714251   -0.63790277647893
H           1.46259139263309    0.88980760923077    0.11265810204730
H           2.24309785845134   -0.26565034411107    1.03845788165192
H           3.10804636829404    0.49104059290389   -0.24088082923783
