    26
        -50.45004761  Gyration_radius:  2.53826866567 Dipole_moment: 6.005
 S          -2.18552403842695   -0.75097752556411    1.23557609514999
O          -1.04350371022392    0.11152424245145    1.44681018741570
O          -3.15146593611904   -0.82054300550250    2.26443080690650
O          -2.86870030461687   -0.33484505561481   -0.09352076578507
O          -1.65717070537694   -2.18070850148132    0.94207637733323
H          -0.79030748876212   -2.14511674061893    0.44688696404602
H          -2.26039573933049    0.18154029685147   -0.69519780487934
O           0.66461066596928   -2.18295366710060   -0.21259706114218
H           1.01955315462656   -3.07065160620895   -0.14386691062618
O          -1.42010511129705    0.98814638586563   -1.78407262879336
H          -1.88909650073761    0.95191404167126   -2.61924643140923
O           2.17970370052565    1.62833430689048   -0.44799770282502
H           2.65001662441578    2.37220806702238   -0.82589446003038
O           0.88406754299845   -0.14880368235707   -2.05887489865608
H           0.82264884535242   -0.96595977738824   -1.53853489353261
H          -0.53159127789328    0.53592986695674   -1.93421080125344
H           1.46738542776264    0.44557863252415   -1.54441145922820
O          -0.22807308308974    2.41568314085462    0.29778276085532
H          -0.51916910672961    1.68995445287038    0.87845405236953
H           1.31420465939365    1.98747787657622   -0.11519715563441
H          -0.74702223818363    2.29443097219266   -0.50796261065076
N           1.74722597909934   -0.57052451178738    1.48136766701241
H           2.29720000714483   -0.80817048863821    2.29576437514611
H           1.16626077288852   -1.59845338715272    0.47173050424161
H           0.85439756387883   -0.19084732515245    1.79039004200567
H           2.22485028672417    0.16583300184496    0.97031574196740
