    26
        -50.45122988  Gyration_radius:  2.47895624178 Dipole_moment: 5.275
 S          -0.56466499121869   -0.97481642349290    2.16584140887437
O           0.84751006166153   -0.53356328856594    1.69284233301988
O          -0.58259793754018   -1.20455213996376    3.56229551622608
O          -1.53220471137841   -0.03863872934888    1.63999637642731
O          -0.73078955426808   -2.31373247021357    1.41109883695189
H          -0.93446579097882   -2.06502296471306    0.46443924302568
H          -1.65312610156181    1.43848382586727    0.99668863450762
O          -1.57670539839686    2.31397240848694    0.54763247366352
H          -2.22752860593030    2.88613239459980    0.95600414985098
O          -1.28569836080364   -1.66756375321651   -1.03031157479204
H          -2.20732754360930   -1.89640307330750   -1.16337642513700
O           1.67643267504149    1.02922236599443   -1.61157166076906
H           2.42309389540926    1.26544807600233   -2.16233529972908
O           1.08125185357374    1.85374340882457    0.90085428932097
H           0.92708785575108    0.46376619277376    1.44890914162133
H           1.39110811590927    1.67639643821112   -0.01087049975421
H           0.17898726230527    2.21160107552819    0.80811399121583
O          -1.07525379418741    0.84388024033855   -1.75118155426273
H          -1.36899550000586    1.44354647347708   -1.04768579540304
H          -0.12250827778618    1.00187530815316   -1.85400785705250
H          -1.21058210814579   -0.70236017693065   -1.28022781329161
N           1.74573928293295   -1.52679453891061   -0.93986474832580
H           0.87269089709618   -1.93125268529934   -1.26103613155099
H           1.76129445346998    0.04931200571592   -1.40114463436667
H           1.67699065203221   -1.44405816224043    0.07080211263353
H           2.49026168063133   -2.17862179777499   -1.15190452287759
