    26
        -50.45284138  Gyration_radius:  2.44717999273 Dipole_moment: 3.823
 S           0.39584457530303   -1.73165586650669   -0.02201423685636
O           1.20656194746320   -0.64599718207897   -0.53444955769229
O           0.73039544107722   -2.17379552534733    1.28443340244350
O          -1.08895526483184   -1.30716505592876   -0.11774856322087
O           0.43033584361826   -2.89648603516749   -1.01754613653905
H          -0.00967848217623   -2.54225322057979   -1.84809088449460
H          -1.33958192196555   -0.54619800185303    0.53087398007164
O          -0.86554399517026   -1.74919853851878   -2.92673984710806
H          -1.75777934645036   -1.79621394088110   -2.57402318470823
O           1.79450839766525    1.74855595387446    0.76244319802281
H           1.88906700317333    0.94125513285382    0.23987410383846
O          -1.75717009213188    0.64121416582960    1.32671470160018
H          -2.70355716403615    0.77969613259972    1.25012430260405
O           0.03648590616028    0.73983485508108   -2.38766632374215
H          -0.60465145158010   -0.80389056410775   -2.87757887041825
H           0.53611793558438    0.26689624405206   -1.67665164245306
H           0.69610940559513    1.13563345962609   -2.96121675618474
O          -0.59339463674342    2.37432449391228   -0.15378650318755
H          -0.55045571662084    1.96425018051782   -1.03009802706370
H          -1.31665667929662    1.39067205678389    0.79653035692366
H           0.33201041941041    2.31720157567070    0.20556604799501
N           0.88115293887465    0.31752333388031    2.87706968376758
H           1.56968281005123    1.41197075957590    1.65984502859844
H           0.98958757926822   -0.60145633457441    2.45477446141156
H           1.21380460961598    0.25860825492261    3.83145007827974
H          -0.11424008181353    0.50667367636991    2.90791120811069
