    26
        -50.44023264  Gyration_radius:  2.54322968283 Dipole_moment: 6.123
 S          -2.10039941250240   -1.38356932644670    0.04582041912809
O          -1.48914328136682   -0.39178363286088    0.88769763422249
O          -3.48786476600345   -1.61563595352661    0.21839248860862
O          -1.77685657947270   -0.98836854522942   -1.43687699398503
O          -1.33237618967323   -2.71942268044998    0.16946905967838
H          -0.40431060324760   -2.53821983396302   -0.16378220740899
H          -1.64893960907805   -0.00539906210350   -1.44619786388361
O           0.99658398690137   -2.19760365657101   -0.81124921337041
H           1.04175204442395   -2.70262011227602   -1.62564182939697
O          -1.45388735684005    1.60227111253295   -1.41397983361750
H          -2.34979877746777    1.94066988756009   -1.46213376572728
O           2.02613032742876    1.39157481918768    0.84289291358166
H           2.92365930558784    1.54956052437644    1.13676251648033
O           1.20118288652623    0.32798479758856   -1.54169565053104
H           1.55612519111120    0.77272802758461   -0.74865226987322
H           1.06009466452406   -1.24207489061488   -1.08482710645118
H           0.35504169382786    0.74609775299881   -1.73142267352766
O          -0.21534478010685    2.89976858828628    0.54042095126018
H           0.55011351512154    2.34625226028501    0.78548913089591
H           0.14280847025539    3.72463725769864    0.20649549175362
H          -1.06357345514173    1.99218881808373   -0.58953313177626
N           1.10110259692195   -0.79657430656028    1.92117631788641
H           1.13923012659174   -1.02404444374691    2.90625355309472
H           1.40406607640016   -1.60907209074704    1.39663303114641
H           0.12089199312753   -0.63602203621412    1.67696415767644
H           1.70371193215193    0.55667671512582    1.32152488413479
