    26
        -50.45004761  Gyration_radius:  2.53827221643 Dipole_moment: 6.003
 S          -1.04772869340207   -0.24872163708826   -2.38905874000508
O          -1.18575765488712   -0.81051110405090   -1.06308387449498
O          -1.89450834607578   -0.74995832132302   -3.40301207983919
O          -1.21471578530325    1.28997205363582   -2.28400621770622
O           0.42938304232241   -0.42583361932759   -2.83182229948884
H           1.04608754978194   -0.36183652202226   -2.04847498959475
H          -1.05755458182240    1.63313472437412   -1.35862374870928
O           2.09022792092068   -0.42090058766960   -0.84080103697109
H           2.92414865817802   -0.76735350287704   -1.16203567839847
O          -0.81251114160394    2.34849417914303    0.04502771711005
H          -0.71101492577901    3.28965085288499   -0.10562356937018
O           0.07663026428927   -0.31948950871419    2.73783224842817
H          -0.09725466263312   -0.08131929005938    3.64913636549755
O           1.36551339635642    1.41827881415503    1.07888764485715
H           1.75557308552093    0.86432393920135    0.38371304496376
H           0.05473430055807    2.02698426877872    0.44605200952190
H           1.02242374637248    0.79314537704261    1.74943988713252
O          -2.07024948985338    0.18708890651834    1.28597346566810
H          -1.89370459583078   -0.30647572999658    0.46514213082962
H          -0.77791645443408   -0.18371436118069    2.24776974476135
H          -1.94115604514636    1.11142592064410    1.03661412965273
N           0.78151439043643   -2.16254342148299    0.53583534884273
H           1.64600107615195   -1.16237544604858   -0.27990699681722
H          -0.09353805280295   -1.99051611780751    0.04437072073647
H           0.93771207090860   -3.16052811974147    0.57895929315415
H           0.66766094777083   -1.81042174700018    1.48169550023834
