    26
        -50.45212765  Gyration_radius:  2.45233105209 Dipole_moment: 5.965
 S           2.00575375135584    1.10846925522540   -0.14673346339322
O           0.75784051447372    1.58885813206321   -0.70425163000831
O           2.80079433980464    2.08726099964562    0.50138322699424
O           1.67474125071199   -0.06196462375802    0.82238040754809
O           2.79296324549433    0.36582990966280   -1.23159801219556
H           2.20417346309649   -0.42013241733561   -1.46519022740676
H           1.09739785856914    0.27514485234100    1.58382803030639
O           0.12709337638866    0.85055144487020    2.63120895524667
H           0.56848905591823    1.58331457916318    3.06569557094120
O          -2.54144867992787   -0.38468249645631   -0.29188090083598
H          -3.41092205711944   -0.77475845229559   -0.19868531187785
O           1.16412004330998   -1.53237679028291   -1.79703830843993
H           1.44383942384823   -1.98406857180241   -2.59606899757171
O          -0.76854811690347    0.09687501038687   -2.33656685765280
H           0.36109370688303   -0.98166409659844   -2.05291683782941
H          -1.53112217545770   -0.06974294555504   -1.75528677615566
H          -0.27846398344405    0.82057740111324   -1.90550316113268
O          -1.43586064999447    1.87223426100428    0.84082117148279
H          -0.57375412253495    1.25943604922396    2.03696005784807
H          -0.70143376355328    1.98896733737642    0.21196472969252
H          -1.98723869763728    1.16833654962108    0.45528519770680
N          -0.69619035042436   -1.86341589442060    0.91762296360604
H          -0.50905667699081   -1.40485229157412    1.80226684114835
H           0.13394291032236   -1.74377052534239    0.34504269107110
H          -0.80721219144690   -2.85375320866033    1.09672011512583
H          -1.89099146476293   -0.99067346763951    0.17054052578047
