    26
        -50.45781188  Gyration_radius:  2.4347426406 Dipole_moment: 3.642
 S           0.66307326729398   -0.03895824278280    0.43961019007170
O           0.23218907378094   -0.83798421169820    1.60005565967173
O          -0.49774702589392    0.61920653930338   -0.16686901699327
O           1.59913550847650    1.03470884934478    0.99331203762424
O           1.36339015411508   -0.85276661029896   -0.54154134428429
O          -0.46276563795833   -2.51560417255344   -1.29476139578452
H           0.26352902339405   -1.87238071256661   -1.06773324803297
H          -0.03457237821857   -3.36283224014187   -1.43445398281831
O          -1.45815685680427    0.84250917389760    2.82671389593565
H          -0.75217817783873    0.23537856076194    2.53011147437211
H          -1.08396600628574    1.72337528553171    2.77652818701185
O          -2.86313390233329   -0.01155623467852    0.71965662900612
H          -2.10430305292993    0.35495407904326    0.20210476687930
H          -2.69403283588391    0.34388545827525    1.61999768364978
O           0.55532979520199    0.97062805961773   -2.59222195864940
H           0.85811657939213    0.06872048478216   -2.72699427057980
H           0.01942802436576    0.92744503063263   -1.77664788204114
O          -1.74073271199995   -2.20404190618892    0.89443985952574
H          -2.39230975411830   -1.31667258670968    0.80040888973778
H          -1.39702747894574   -2.42815411954586   -0.03825218848969
H          -0.90998061145944   -1.76519310214377    1.32449641241747
N           2.61857757516598    2.06918571925313   -1.07714203609386
H           3.51170849631866    1.65129661173026   -1.29995027472113
H           1.92983284381115    1.78914913798266   -1.78827002988771
H           2.06454902896439    1.49982836200534    0.15445299139018
H           2.71204705038730    3.07587279717302   -1.07705104891604
