    26
        -50.44023244  Gyration_radius:  2.54315894838 Dipole_moment: 6.120
 S          -2.10088706243804   -0.58572923937329    1.25492182103436
O          -0.80317983344057   -0.06530593481765    1.58818877522566
O          -3.14289103386344   -0.38102477451896    2.19347453476990
O          -2.48422597068763    0.00243894148254   -0.14731095619624
O          -1.99044248518298   -2.09157527321491    0.92332590450256
H          -1.40238049603433   -2.15557181231386    0.11388966550269
H          -1.99911629904130    0.86251075864540   -0.23513781396732
O          -0.56432519762121   -2.15916004611596   -1.22614983212908
H          -1.16634967757306   -2.45100182316330   -1.91367136569984
O          -1.19351581092236    2.26422173515155   -0.33189081305488
H          -1.75545652597361    2.88109375912825    0.14051246567490
O           2.51964231592230    0.41698050473475   -0.48185651798007
H           3.41374825469022    0.20266769604567   -0.74945678890653
O           0.21668290573600    0.25165242426798   -1.95589214835147
H          -0.27749847337826   -1.24334298163566   -1.49231204114944
H          -0.34956514137832    0.95725114875569   -1.62677941010367
H           1.07980657137325    0.36274107828061   -1.51429381895750
O           1.28481203428393    2.60726234326914    0.54883264711296
H           1.76636931538678    1.79200592893453    0.31184764897175
H           1.70502715930322    3.32071979639342    0.06449038428072
H          -0.30985318400507    2.30811268087935    0.11696708998865
N           1.51853621074318   -1.52582221674607    0.94264301315158
H           1.97664360109227   -1.97076115189491    1.72735228268566
H           2.19571889404820   -0.34983807048606    0.09893274205296
H           1.14224785000509   -2.25107850832685    0.34303389319364
H           0.72045204894663   -0.99944695336289    1.30633862834884
