    26
        -50.44023246  Gyration_radius:  2.54321742022 Dipole_moment: 6.129
 S           0.49494333220614   -1.65177750121756    1.83297609951046
O          -0.42057048280903   -0.56235030001987    1.63078543200118
O           0.17121336006863   -2.59322121366281    2.84172319327523
O           0.68133005176862   -2.35734358224437    0.44500765835203
O           1.91803674511627   -1.09956687839847    2.07713402773759
H           2.17305274245267   -0.60959060101435    1.24047579342964
H          -0.14710912823538   -2.18733753745567   -0.07208713726587
O          -1.52156613349805   -1.89154942765510   -0.87680682275236
H          -2.12016875013828   -2.57086323456993   -0.56120444123838
O           2.54057470332811    0.04026755249418   -0.15265132230511
H           3.24140377698322   -0.50146590935072   -0.52099633713257
O          -0.78633764568269    2.18062877997590   -1.17630738698763
H          -0.70529938314068    3.05950351629176   -1.54767145451626
O           0.56827906373464   -0.08759983335915   -1.89819647480668
H          -0.04321221720999   -0.81374326119147   -1.73802911159759
H           0.06508955176819    0.73447947905185   -1.74472850833565
H           1.78859948338690   -0.01616722225562   -0.80326388553779
O          -2.81953834692966    0.41990497510392   -0.78028787039237
H          -1.97350435586546   -1.02815188876674   -0.69145213924294
H          -2.13102862252096    1.11123872890381   -0.80036368627431
H          -3.34128234942744    0.53410592857855   -1.57706633003441
N           0.53854005808419    2.02661446636023    1.06578437356021
H           0.12648781814534    1.14422319068281    1.37851664866899
H          -0.28914972990583    2.18916289843454   -0.29148324694713
H           0.47129684217598    2.68552822710285    1.83055959491815
H           1.51991961614486    1.84507066817998    0.88963332391558
