    26
        -50.43947602  Gyration_radius:  2.6334122169 Dipole_moment: 7.866
 S           1.30498604742827    1.35274617222360    2.02770800845005
O           0.17189851000779    0.50386987378449    1.77925933223139
O           1.64617964936192    1.63720402662539    3.37240484537795
O           2.53370715097483    0.74903449989198    1.28063988970229
O           1.08345050045686    2.69512040143748    1.26762581789118
H           0.64315781394252    2.45315388889601    0.41972823197800
H           2.30022210262442   -0.11442614858658    0.83105368520513
O           2.10967800293134   -1.43312421421939   -0.05016880491632
H           2.96513308486810   -1.59751352552990   -0.45175560293619
O          -0.10885639315899    2.12395929524645   -1.01843517523918
H          -0.20149339295433    2.96802089207017   -1.46504262680190
O          -1.86975348356653   -1.47254865062994   -1.14334564323634
H          -2.39249975466228   -2.22101445767048   -1.43189599414775
O           0.56473690496208   -0.44243389240438   -1.92260360945036
H           1.51953963076929   -1.09760677702564   -0.78137690815110
H          -0.30689326283060   -0.84968196296258   -1.77140960771163
H           0.46556622558603    0.48533594657157   -1.66087271727245
O          -2.55219183827920    1.12615701994214   -0.87362160360889
H          -2.36198557899585    0.16501500078427   -0.86281699182052
H          -1.02716816900245    1.79570936802932   -0.83505510500765
H          -3.13013607898759    1.27885042768017   -1.62332221094106
N          -0.64850688845219   -2.09475628042301    1.06668146463995
H           0.26032263352448   -2.49968058880596    0.87192715600827
H          -1.43599141468064   -1.74290094188488   -0.26058609871655
H          -1.07083669321575   -2.61735629074035    1.82361644599733
H          -0.46226529861054   -1.15113308196941    1.41166380247739
