    26
        -50.44023274  Gyration_radius:  2.5431141106 Dipole_moment: 6.120
 S          -2.18092595755455   -1.24378694855197    0.15343402575628
O          -1.42290196486089   -0.36488570223119    1.00131187034443
O          -3.55933019870744   -1.39741862386125    0.44509648755408
O          -1.96995564193800   -0.75294759581235   -1.32098211688163
O          -1.50389790065416   -2.63242513315039    0.10176132644925
H          -0.60098975684733   -2.48562234543668   -0.30855051142080
H          -1.77423892148701    0.21754820560084   -1.27017280490145
O           0.75321133321248   -2.18559165506608   -1.06622315488813
H           0.68469138788145   -2.62588704868523   -1.91582048026196
O          -1.46447861215738    1.80145531442617   -1.13624063399262
H          -2.33522808638252    2.19653009664220   -1.06437689754887
O           2.19343664098393    1.18534773025637    0.73437418953902
H           3.12333328104727    1.26184185992641    0.94964481082324
O           1.06914006251656    0.37205441253894   -1.62649833818864
H           1.52994516605392    0.72772566064396   -0.84307100117987
H           0.85896155438804   -1.21739221391251   -1.27415650008755
H           0.24139370314320    0.85820539830469   -1.69861500968930
O           0.04893552877037    2.85489315418707    0.77079410895739
H           0.79272062961871    2.23543958798265    0.89558089678617
H           0.43131688445605    3.67865566289484    0.46194597728988
H          -0.96820071830589    2.09757981115735   -0.32992047441541
N           1.21817773294262   -1.01702824371731    1.73651590287654
H           1.33312200422605   -1.32472317118507    2.69343223293695
H           0.23338570629804   -0.77419033456162    1.60435746739198
H           1.85809608041134    0.33747811807139    1.18032649516805
H           1.41028006294305   -1.80285598646122    1.12605213158306
