    26
        -50.45004759  Gyration_radius:  2.53821397297 Dipole_moment: 6.004
 S           0.70284397779722    1.29179506406391   -2.16854136017314
O           1.14803850915781    1.10741823501785   -0.80453140483821
O           1.47057484187002    2.14001697479533   -2.99771873679834
O           0.57285124637381   -0.10551025212590   -2.82979045171607
O          -0.75854984802438    1.81325309567535   -2.12811669236487
H          -1.25128798428851    1.43050072442023   -1.34789366752344
H           0.49525918677246   -0.84387506201839   -2.16073789911334
O          -2.06911190219671    0.98535669112245   -0.04956292731135
H          -2.85766505718355    1.52476722035248    0.02696621095111
O           0.40279940309606   -1.06903513929528    2.51002340981241
H           0.66200496802990   -1.74196184857012    3.14042243241161
O           0.33164461538707   -2.13168552522404   -1.23519911361270
H           0.02469190774480   -2.85958846567615   -1.77806561056075
O          -1.43866226369654   -1.62315067269393    0.57729866473501
H          -1.81224694425747   -0.76279180333935    0.32737627385530
H          -0.38446691200877   -1.96642426045422   -0.54508313847817
H          -0.88190689018598   -1.44810215249053    1.36311883673273
O           2.16352051363171   -1.00181924082515    0.54295933526500
H           1.12980367428225   -1.02869138897435    1.83278943380115
H           1.81875712092715   -1.66452505121601   -0.06956103898333
H           1.96577936451833   -0.15262062163843    0.10905755727659
N          -0.25037021850731    1.68001248483423    1.63884398913118
H          -1.40813506788749    1.30467888048360    0.67355278210679
H          -0.19873082403527    2.53682501120218    2.17309509484398
H          -0.06662304036860    0.89801157915830    2.26036330017148
H           0.48918764305275    1.68714552341082    0.93893474037565
