    26
        -50.44877578  Gyration_radius:  2.4686499816 Dipole_moment: 6.602
 S          -1.65071540952073   -1.44758839921072    0.29568301259467
O          -0.68317934822783   -0.96862509566874    1.25533485576471
O          -2.91475529463486   -1.83985839795163    0.79142912352020
O          -1.79641937831247   -0.34234366024179   -0.80690007931221
O          -1.02036928398037   -2.58731988987870   -0.52280976781957
H          -0.09993595271823   -2.32422750613982   -0.83214958696733
H          -2.27833907274773    0.45938369348007   -0.40312767464182
O           1.27349580870085   -1.90645731976972   -1.49269458923580
H           1.34570285219449   -2.39975335898785   -2.31234987769062
O           1.57393177264911    1.82165120837173    0.11889395810961
H           2.33361865530927    2.40456173190005    0.13042729258785
O          -2.74146510496058    1.76040436690945    0.23754833726805
H          -2.68586708305117    2.52719255411460   -0.33720489517099
O           0.53452112196992    0.53115199007503   -2.03862908497381
H           1.08984955318765   -0.95686078995666   -1.75154069454188
H           0.90921678346702    1.10694747289512   -1.34332745069878
H          -0.38279853098434    0.36162669244092   -1.77795477696299
O          -0.64497329311891    1.69507742900961    1.76759307944726
H          -2.02133750794946    1.86003922426877    0.92450758339943
H          -0.64958188449908    0.72293729672083    1.81893190664253
H           0.12932726748864    1.91199034166929    1.21968728669140
N           2.15077035782249   -0.56571801068008    1.06103037638999
H           1.87428185665387    0.93740388530416    0.50265751392374
H           2.43624165416959   -1.19947649667938    0.32338128746233
H           2.72746237450937   -0.74508513817206    1.87299714274112
H           1.19131710664388   -0.81705381381346    1.29858571144917
