    26
        -50.45123041  Gyration_radius:  2.47045050692 Dipole_moment: 4.655
 S           1.25900362374734    1.17927101803652   -1.66420775613961
O           0.50865447150841   -0.05617114417614   -1.62125766477622
O           2.19024582042083    1.31046870413549   -2.72219561869047
O           0.27491668798263    2.36264033990614   -1.67142713298621
O           1.94726960646722    1.36449715048815   -0.27855127108412
H           2.10870247874349    0.49061397542392    0.18115353823832
H          -0.21720886721836    2.30168480595485   -0.79735853302449
O          -0.87163469474931    2.19592059749466    0.62145486689361
H          -0.60358403916808    2.97731758576662    1.10910741783152
O          -1.58940377005778   -1.83753874252522    1.02875974752842
H          -2.35205501766686   -2.28119301294882    1.40036228585097
O           2.32495784405987   -0.86442479915222    0.97535423937754
H           3.23246272210555   -1.16651500074509    0.91499613532681
O           0.73599508738400   -2.41137398918495   -0.33388763119200
H           0.61221156740840   -1.72635178679131   -1.01387685303253
H           1.75637549865746   -1.55152828284862    0.50059374995511
H          -0.09288312397659   -2.41226984934836    0.17618326867511
O          -0.06525542113214    0.17531913653457    2.08597700565028
H           0.84700159535546   -0.09407025238927    1.92371310673987
H          -0.55488792288138    1.41932219451949    1.16454512600970
H          -0.61803352055023   -0.58665600212598    1.82925249321886
N          -2.24811059360122   -0.09541667029750   -0.84135236835832
H          -1.33144114738920   -0.07792806203699   -1.28856292123137
H          -2.94381234337752   -0.21753441922661   -1.56591114639469
H          -1.92532875676743   -1.21684453830838    0.31251127925521
H          -2.38415779526849    0.81876105378305   -0.42537538361745
