    26
        -50.45123053  Gyration_radius:  2.47032236945 Dipole_moment: 4.659
 S          -2.10728189063091   -0.64562793432330   -0.94127191295140
O          -0.75390934681337   -1.15239498697589   -0.99364116109069
O          -2.97938553862052   -1.08007129030884   -1.96815508555155
O          -2.70859045034243   -0.96549376324560    0.43875585297597
O          -2.02920162321547    0.90960581757617   -0.88592729943503
H          -1.19285334155665    1.25927931907736   -1.30924182383634
H          -2.13729743314861   -0.46552149615388    1.09728605820373
O           2.55882621034361   -0.15296047047850    0.62632803075649
H           3.37333766688655   -0.26662087618534    1.11643181037723
O           0.14809525221426    1.85405302519599   -1.91073103429890
H           0.01309933578409    2.20096860813617   -2.79383131714881
O          -1.26233262816198    0.41716423855657    2.04977464917008
H          -1.84503401435829    1.07886987234769    2.42777191908839
O           1.60263160466899   -0.27107886907655   -1.95585174995100
H           2.12502987995733   -0.23763696200434   -1.13544554924094
H           0.82784995351189   -0.81840992855058   -1.73875231859848
H           0.77815480665709    1.06935640335525   -1.99891164018660
O           0.64403535087304    1.78600014872665    0.87905250925851
H           1.41138074578367    1.18661086413469    0.81466553040499
H           0.44376066853363    2.05617611993975   -0.02527969362777
H          -0.53984891235150    0.92939820521730    1.58721018239587
N           0.67722093566959   -1.83783299699215    1.39173402838947
H           1.91102364835756   -0.84610049398078    0.95977345398725
H           0.79397440679490   -2.81952046780178    1.60746984226316
H           0.11887768365227   -1.41840220789582    2.12628128640540
H           0.12843699951002   -1.76980987829188    0.53450544224121
