    26
        -50.45123048  Gyration_radius:  2.47028840672 Dipole_moment: 4.659
 S          -1.70860215073490   -1.28071305478443   -1.08818357609528
O          -1.60030880740282   -0.55053707421767    0.15539762979662
O          -3.02132615901034   -1.55260049509160   -1.54275968084643
O          -0.88604738012749   -0.50994168971639   -2.16396112611121
O          -0.90333495115284   -2.58718967783345   -0.97323582718119
H           0.04964731177502   -2.29774566697658   -0.83856288039686
H          -0.81890378674611    0.46668304517970   -1.95721845788779
O           1.51924237691923   -1.76916947413318   -0.72732495590755
H           1.97820407641760   -2.05849852083466   -1.51847324609134
O          -0.63111459755787    2.00779215226347   -1.63570245876008
H          -1.22890506695142    2.55019053966401   -2.15235269363973
O           1.19448343245491    1.37918799380236    1.90641707134623
H           1.78501802051902    1.63141889757633    2.61648840714871
O           1.77981958850681    0.84027755787051   -0.71165798974202
H           1.59946076340432   -0.77317403503510   -0.72020879551000
H           1.10632810067437    1.31038030682199   -1.21807295609753
H           1.66146877465491    1.12183876981470    0.21520596501035
O          -1.27115166415855    2.02875321732283    0.85890418541741
H          -1.58602621560797    1.11007141300106    0.79666007708753
H          -0.42569328749119    1.97325938845997    1.33755061197076
H          -0.89935796172100    2.11846158294691   -0.66798890964843
N           0.45470170784458   -1.14950965421668    2.06007061003760
H           0.19156474854483   -1.65434648111644    2.89660422296606
H           1.09874199852889   -1.72787365367831    1.53286575890624
H          -0.38031361788617   -1.04422550451878    1.48366991288739
H           0.94240472627885    0.41721011741431    2.05586909136029
