    26
        -50.44023242  Gyration_radius:  2.54376901151 Dipole_moment: 6.133
 S          -1.51736326911678   -1.35401137563489    1.48565831819276
O          -0.88844413419994   -0.06291316531656    1.54418587087924
O          -2.62731571422514   -1.57477069315369    2.33882543980354
O          -1.90126823991770   -1.60944049760891   -0.01316419082877
O          -0.46147786777260   -2.46028213410199    1.71283271418152
H           0.18877485043439   -2.38458860158652    0.95365227647675
H          -2.02434563922877   -0.71816087730315   -0.42940992624402
O           1.09947962887426   -2.27204042912888   -0.33365225097496
H           0.94401193648030   -3.07259112783475   -0.83889101320458
O          -2.22365170150898    0.75803096266418   -1.06510879034469
H          -3.12131432025921    0.99054779224499   -0.82093162536108
O           1.79417777015128    1.73483307422310   -0.72819312785882
H           2.66740370060917    2.06254436451248   -0.94488505638044
O           0.39097800283015   -0.29110126903929   -1.92381137533312
H           0.82031707984390   -1.52238482919596   -0.92685936600855
H          -0.53568759457481   -0.04293530711912   -1.84307988953193
H           0.90871765927793    0.46879813868465   -1.59681503956714
O          -0.67847651180451    2.83613444735899   -0.49092531768570
H          -1.65122305407074    1.48446509884493   -0.70619055428656
H           0.23135631419912    2.48567234992990   -0.44504346592225
H          -0.69151715938099    3.46105652589756   -1.21859076939806
N           1.91385054330995    0.16420599366672    1.35097553242940
H           0.90875259490751    0.14839405118073    1.54011458501658
H           2.17441733716538   -0.77528693892760    1.07429152369152
H           1.89322475434747    1.16517859287948    0.10616545017789
H           2.38662305363276    0.38064585385666    2.21885004807973
