    26
        -50.45123045  Gyration_radius:  2.47056486302 Dipole_moment: 4.657
 S          -0.90084252085722    0.58768335072613   -2.14256479518254
O          -0.49422395957005   -0.63923445770745   -1.49415126933141
O          -1.75932712782521    0.45145432855147   -3.25976602067701
O          -1.52829128521403    1.51261437073838   -1.05670010615689
O           0.35488153356170    1.38853832786601   -2.53052150378760
H           0.80875150874885    1.60427068312340   -1.66021827998531
H          -1.91163995230409    0.99042613373237   -0.29428926706175
O           1.05377691138722   -1.51501914363761    1.88712017597247
H           1.67349047355918   -1.91336926353532    2.49851028406885
O          -2.47446949170658    0.20825735465751    0.96512698714435
H          -3.42891960290653    0.12818318895169    0.93220526981197
O           1.40390785454989    1.98206521518134   -0.26196225673080
H           1.34210875845399    2.93611981983643   -0.18341021115134
O          -1.33184043943515   -2.07472941381066    0.62577421394006
H          -1.03044556299588   -1.80410643708913   -0.25900930107622
H          -0.53498283896148   -2.04354462363620    1.18361638041270
H          -2.10030436544113   -0.72748388300951    0.89388994220397
O           0.09521876490386    1.04776001655091    1.80953731101966
H           0.43406685340516    0.14597480383969    1.96467565833144
H           0.89448341785031    1.61566086140899    0.51569274514736
H          -0.85458601762603    0.95186841914809    1.66868779333546
N           2.15332700522712   -0.96573194536142   -0.44848736669553
H           1.54377140488347   -1.36467062783541    1.02196050208727
H           2.79968174003093   -1.54710974322244   -0.96635312355406
H           1.27545720294118   -0.93620926216215   -0.96729714961071
H           2.51694975536427   -0.01966807330120   -0.44206661248993
