    26
        -50.45638531  Gyration_radius:  2.49504664234 Dipole_moment: 4.636
 S          -2.10527839314754   -0.42095004837048   -0.41369950749372
O          -1.04211583363300   -1.15778386947908    0.29625836590374
O          -2.05896302531934    0.97986999582800   -0.09891069487551
O          -2.11666545652784   -0.75222666331057   -1.82056613215968
O          -3.46312671160117   -0.99475303273339    0.17309480953855
H          -3.63201466069171   -1.68633313683911   -0.45657609504408
H          -1.05704962217593    0.17012200616567   -2.68280363515731
O           1.40772578623852   -1.31939473416587   -0.33848737664978
H           0.41060703152876   -1.35328631612816   -0.16556230404982
O           0.31764849907726    2.07449165613248    0.42334146241231
H          -0.58815941792152    1.91040762020407    0.09684964311248
O          -0.34673888627640    0.62909922113892   -3.18595646915972
H          -0.28413918370520    0.17668618242298   -4.02866294157068
O           1.63772837711937    0.85243941015596   -1.47060399382766
H           1.56378771415034   -0.37265423940262   -0.90845378570735
H           0.97581072989632    0.84355562975213   -2.20525959704208
H           1.23515411745174    1.44214096921856   -0.77435739899950
O          -0.42065834323821    0.28833839785942    2.40921473844740
H           0.33471392528468    1.59422402218166    1.26649546041705
H          -1.21156276354952    0.74197727456057    2.70634632911058
H          -0.71423977143824   -0.28323008223964    1.66318410892880
N           2.28718437776736   -0.65766354823445    1.98543117690905
H           2.92582777132524    0.12618272873978    1.93710549191097
H           1.82613222453392   -1.12159841202889    0.60025983904320
H           2.69546339731520   -1.37131391129905    2.57435414782475
H           1.42292811760718   -0.33834711013046    2.41796434804459
