    26
        -50.45730946  Gyration_radius:  2.44879939772 Dipole_moment: 7.977
 S          -1.60966309731244   -1.32362715954215    1.22917648584012
O          -0.75610145392670   -1.78980830165217    0.09270159908512
O          -2.69150787964291   -2.20254539246495    1.49855308603443
O          -0.60794112793342   -1.32882180345962    2.46220295039273
O          -1.94864596165042    0.07941823405837    1.03385244176541
H          -1.95861978115217    0.93354885512975   -0.26783289831184
H          -0.18470158785133   -0.45666599078606    2.38621212532746
O           1.78285384147768    0.19756896294158   -1.90486539320532
H           2.28457368094985    0.14614845222289   -2.71853344113574
O          -1.88544304321481    1.50733993434959   -1.08321998126709
H          -2.69439718705277    2.01893891590179   -1.11534349134843
O           0.89565796355096    0.88991167004061    2.04723882732704
H           0.81869281764415    1.51179237754824    2.77145892426941
O          -0.63686650250696   -0.58830413234096   -2.29126642114066
H          -0.78151340902765   -1.16823756878799   -1.51497896919923
H          -1.18148528311525    0.19667113379626   -2.10780305337347
H           0.84320263439300   -0.10607751122834   -2.13219982440704
O           0.61968091152401    2.13875302982483   -0.22804971662153
H           1.14553994075707    1.63616790849076   -0.86741592531100
H          -0.30394010600385    2.05832865286735   -0.53480066566268
H           0.71698044340470    1.41435714589055    1.21272573095065
N           1.66581319445073   -1.15980193048108    0.41501427867694
H           0.60546776986502   -1.49632949008793    0.29435381795949
H           1.92226795020810   -0.68385223263934   -0.47723884423235
H           1.66955414495088   -0.47712235312996    1.18413700292035
H           2.27054112721429   -1.94775140646334    0.61592134466716
