    26
        -50.45283822  Gyration_radius:  2.45252440422 Dipole_moment: 5.088
 S           0.65958200247853   -1.21465595916849   -1.54984941449885
O           1.02326369629344    0.15777587863185   -1.82241246360257
O           1.75144115250054   -2.12093588506931   -1.43856763388131
O          -0.16157891097345   -1.24274447403282   -0.22700291969028
O          -0.36519925015699   -1.68979660182882   -2.57662657834422
H          -1.22371714130574   -1.15378057860634   -2.41997798519827
H           0.54435103076514   -1.35420662138773    0.49878847703997
O          -2.40743003186744   -0.23973877403385   -2.15367344468939
H          -2.76773025940991    0.05778459384142   -2.99253828668453
O           1.83629898643104   -1.41437798471948    1.31462397406701
H           2.34339890272656   -1.95450674540438    0.69734087779106
O          -0.23533669357255    2.02104669238420    1.39121789463946
H          -0.36769551829189    2.73742635572257    2.01330822975922
O           2.17978230408145    1.03099497890710    0.48223359308779
H           1.96300389859024    0.84539733826283   -0.44665228100222
H           1.41416045455444    1.52393111633269    0.82848927062783
H           2.11768899432635   -0.47143369805292    1.14223495924408
O          -1.02992158228481    1.77519579392198   -1.25812855979738
H          -0.20650001312064    1.35223641922357   -1.56455388626577
H          -1.98991069208565    0.56515601543318   -1.73159953820719
H          -0.88614007553133    1.93907471661583   -0.31127382104425
N          -0.88654420714204   -0.31487086996901    2.52285163684322
H          -1.49494332899340   -0.45792851376880    3.31923933038690
H          -0.51225795225901    1.17965112884671    1.84661612217752
H          -0.00255084753112   -0.77333559297687    2.71397445556245
H          -1.29551492826141   -0.78335870911918    1.72193800168915
