    26
        -50.47071353  Gyration_radius:  2.41587639308 Dipole_moment: 4.157
 S          -0.38240760095681   -1.87050642920010   -0.68218852756746
O           0.69556577165578   -1.39207784624445   -1.53160498649703
O          -0.04076486395978   -1.95276397457453    0.71736959634442
O          -1.61469094595248   -1.10991102788001   -0.90052631680646
O          -0.68657369305994   -3.35067881426512   -1.15491327181420
H          -0.68962194127476   -3.26550029473173   -2.10211585615087
H          -2.12766485808692   -0.64679819456051    0.59432333148755
O           1.67998150382569   -0.33111376853829    1.94376700700664
H           1.15539834060792   -1.09517694385712    1.62935687839379
O          -2.16352896437535   -0.44326432820271    1.55779528642082
H          -1.71624009948554   -1.20097406372426    1.95141335979483
O           0.31650291693679    2.41483790755960   -0.67759585825299
H           0.27352784950390    3.30383660738269   -1.03138307913437
O          -0.61428816901273    0.74965260002499   -2.44127890259983
H          -1.25028902773578    0.19823024618215   -1.94249578842519
H          -0.08507122632841    1.81875806997634   -1.37617814175645
H           0.13427060337023    0.14106219658232   -2.53663336125097
O           2.39290533062300    0.42874777337360   -0.48472196226133
H           1.89957785385021   -0.29393119627171   -0.91821853379140
H           1.87005945816042    1.22906053611677   -0.62647739164530
H           2.19677926262761   -0.06160609763801    1.14764982519371
N          -0.25829111915994    1.37502425220297    1.78324982599690
H           0.59649297183211    0.71691357756228    1.94902651156909
H          -0.36787174461736    2.03817203650981    2.54209032259698
H          -0.10852577959216    1.86578600324393    0.88072494620958
H          -1.10523181938830    0.73422119297199    1.70956508693156
