    26
        -50.45123042  Gyration_radius:  2.47050558882 Dipole_moment: 4.656
 S          -0.81756904117001    1.94080466648116    1.14532511005106
O           0.48439223073549    1.36714291128136    0.88626101350366
O          -0.89105274423984    2.87440435046356    2.20683178657909
O          -1.35583508902228    2.56723279590544   -0.15326388526897
O          -1.82004026136621    0.76631313860089    1.35494631727937
H          -1.36614909682350   -0.06053965822066    1.68824905071339
H          -1.45131869384636    1.80032981622993   -0.79586897340586
O          -0.68002552567133   -1.41225423653864    2.15483336434486
H          -0.79612066188347   -1.56002288013787    3.09458239284670
O          -1.66180741927143    0.54375110234824   -1.70553108806811
H          -2.60606927387875    0.46591407682252   -1.85606721123768
O           1.74911180414712   -1.67108842960266   -1.05590561029073
H           2.27943356917481   -2.15962162960396   -1.68575702965837
O          -0.95564120410901   -1.74786170125627   -0.64419976300407
H           0.00023966008458   -1.84605501520501   -0.81405863046544
H          -1.05886303850178   -1.78979016115593    0.31431164065648
H          -1.38508498437241   -0.32015231067627   -1.28651177699878
O           1.77729273129556   -0.88978785249617    1.58721018742729
H           0.30975509009650   -1.28254260998916    1.99992612609710
H           1.92442970171361   -1.28655130595447    0.71085062405154
H           1.54928752136019    0.03909823785674    1.40791300861440
N           1.37037622039320    0.83685771018118   -1.78616636295724
H           2.05711551202257    1.46133319803818   -2.18907828904037
H           1.67750754169342   -0.72727096189840   -1.39517631101135
H           1.14711782070869    1.17973701263041   -0.85170780230857
H           0.51951763074409    0.91061969589310   -2.33194789844766
