    26
        -50.45283842  Gyration_radius:  2.45244647936 Dipole_moment: 5.084
 S           1.15092602002563    1.67904261004470    0.41190573802548
O           1.31377244363569    1.31050508774475   -0.97648587180335
O           0.60945314870700    2.97621690176780    0.63564564328929
O           0.23043482520802    0.62024287169877    1.08760993270098
O           2.46961463860576    1.48264352594497    1.15546752943192
H           2.66273363595740    0.47719966359237    1.17081678231007
H          -0.70997847596955    0.98728787046277    0.95027942274659
O          -1.13898409280553   -1.73111529156143   -1.34046554674438
H          -1.64784517857781   -2.42052590473660   -1.76865857185591
O          -1.95111169484870    1.74935567763249    0.48616133173801
H          -1.58656491226291    2.63781403462980    0.57375800665608
O           2.88705515905690   -1.02120655148457    1.05399020652220
H           3.80870715449175   -1.18428891384221    0.83958673193182
O           1.60683066450700   -1.33915975359733   -1.18696434802725
H           1.56996678172626   -0.37205065241109   -1.30587528183825
H           2.36539039759393   -1.27247336093324    0.23866420615598
H           0.68099283139252   -1.62981941090419   -1.23453214586517
O          -1.22745962659084    0.97453577786557   -1.89426879767935
H          -1.24667425954191    0.00110430813800   -1.85832069458398
H          -1.86543740290073    1.51672395861805   -0.48162937412397
H          -0.29135261393672    1.21396840371538   -1.79176309124565
N          -2.01321640739504   -1.35552979540832    1.16055502315410
H          -2.53792346113827   -0.48834116432259    1.13179190215453
H          -1.13157440600085   -1.15257449086612    1.61855207125431
H          -2.52438496096735   -2.01482462772827    1.73406197429563
H          -1.48337021796979   -1.64473079413741   -0.40988275861685
