    26
        -50.44803312  Gyration_radius:  2.47699202099 Dipole_moment: 8.069
 S          -2.16560464515003    0.20308575638332   -0.52741590558012
O          -1.46296631990729    1.10871246105347    0.35431737775486
O          -3.25511895930374    0.73108298949645   -1.25651610996627
O          -1.10572091051783   -0.44276932214653   -1.47835572782223
O          -2.61266012132887   -1.03050705501854    0.27893749698811
H          -1.84898081055314   -1.37916350680739    0.82924241155735
H          -0.74261443571156    0.27863085151527   -2.09122219441944
O          -0.64868193698376   -2.05105527559945    1.61777218245515
H          -0.86667056992933   -2.97339212760692    1.76262096852151
O          -0.01021478458813    1.39505743923199   -2.84952039930021
H           0.77354713406810    1.14247301573751   -3.34204465839044
O           2.25292398877746    0.71645948839838    0.85772154266767
H           2.97379663658090    1.13710644124877    1.32843220722193
O           0.14683586461974    0.50051034333334    2.43157467998544
H           1.50763961814647    0.63939624735612    1.51227498906661
H          -0.50554061656202    0.86364188992258    1.80500751715012
H          -0.08824227678148   -0.43199369120868    2.51438714537326
O           0.69811276468963    2.46529810888196   -0.59507973430106
H           0.30170924178183    1.94109084956600   -2.07105731759087
H          -0.14294153276120    2.23542243987370   -0.16564619892362
H           1.36054434142970    1.89145700631160   -0.16498503714638
N           1.18876523178218   -1.81935579200680   -0.21439140567944
H           1.76293305108722   -1.02255175754443    0.04997970727505
H           0.10954307490659   -2.02266912589105    0.93738115669457
H           0.58319171689123   -1.52157225289516   -0.97257985479729
H           1.79641525532895   -2.55439541157771   -0.55083484881821
