    26
        -50.45242135  Gyration_radius:  2.3993103924 Dipole_moment: 9.210
 S          -1.24439292968388   -1.36142630689500    0.10023388239370
O          -0.01925720983679   -0.71164298180027   -0.35549792655623
O          -1.00773476890281   -2.36370366118684    1.09776676125463
O          -2.03987084717787   -0.13956975328621    0.85588013550630
O          -2.11178263035356   -1.70089854451794   -0.99908740276767
H          -1.70883483287998   -0.67248676554909   -2.16246092089329
H          -1.54874495481071   -0.02644824342786    1.67968286101580
O           1.68535531807862    1.85736854325080   -0.18038838861082
H           2.24504476101626    2.30421280990488   -0.81732289429458
O           1.58251853427305   -2.07258076690691    1.90498647691685
H           0.70542546731881   -2.34289938826309    1.57263694626101
O          -1.58231675315135    0.09225719326648   -2.78684159647256
H          -2.39922805527100    0.14958502575544   -3.28669856439536
O           2.61233930193279   -0.59160732747650   -0.14793827736805
H           2.50116820698967   -1.11264257833463    0.67385700435616
H           1.85767713495591   -0.88361849516269   -0.67822765600193
H           2.06268127804325    0.92953856814080   -0.11065578530617
O           0.30708091543177    0.48687747383099    2.00747292388742
H           0.90233777776425    1.23538955342084    1.91650236445588
H           0.39579067060563   -0.01776929079306    1.17378743741652
H           1.39421305820549   -1.48446960247872    2.64205691576832
N          -0.92162554354292    1.71842883001727   -0.82088195184882
H           0.11867763428214    1.72931360267116   -0.60378036093964
H          -1.39434065511460    1.14779804112403   -0.08909717911965
H          -1.30056005617744    2.65970003301224   -0.86888025288446
H          -1.09162080182232    1.17129402186786   -1.71710457177380
