    26
        -50.45242142  Gyration_radius:  2.39935355484 Dipole_moment: 9.209
 S          -0.77114143003476    0.60022118892684    1.56719671578743
O           0.06077396514082   -0.27290682654808    0.74477376458082
O          -0.00757189172411    1.54575997894721    2.32783831828638
O          -1.59636405905185    1.47119047557590    0.44592782319861
O          -1.80427185391019   -0.13375075982451    2.25278796667483
H          -2.03222324508830   -1.44361860102227    1.35501597650864
H          -0.93197988430590    2.08164690350252    0.10096514817267
O          -2.29145104828696   -2.13495891873643    0.68750240732144
H          -3.20419437466103   -2.35198886828286    0.88807280123151
O           1.02675433169137   -0.85436931948519   -2.13036846811399
H           1.24418583849724   -1.66950448218338   -2.58521984294728
O           2.54166937094067    1.45638729581344    1.35953902273301
H           1.70454966019851    1.44437935501651    1.86148363286359
O           0.74270536319513    1.76012849243082   -0.84560365798558
H           0.71209636453133    0.98425907942632   -0.25006806555127
H           2.43471910965354    2.16843141139775    0.72229242565089
H           1.07272199759568    1.42511518108164   -1.68336430965659
O           2.51695810298161   -0.92650748385177    0.02189856797507
H           1.74184059462563   -1.16400903663606    0.54985519026967
H           1.63213054865026   -0.83566047063567   -1.32962581482006
H           2.78602124157920   -0.07408334269420    0.42208315402853
N          -1.52777448223136   -0.61756626625669   -1.32752699065369
H          -1.60562047688846    0.26960616889257   -0.78755281708065
H          -2.13179138789269   -0.61659872939284   -2.14426842617177
H          -0.50814764750259   -0.74505452125873   -1.59884518977579
H          -1.80459469768408   -1.36654788421333   -0.62478934258375
