    26
        -50.45025683  Gyration_radius:  2.47502950489 Dipole_moment: 4.751
 S          -1.96966200984188   -0.24456281412391   -1.39005112405575
O          -1.70388630094535    0.07978747967052   -0.00626350721073
O          -3.14831516386576    0.30860462937101   -1.94654024522204
O          -0.71509650388917    0.15178674245857   -2.22119830038082
O          -1.96271130747728   -1.77618779464550   -1.56139047660408
H          -1.04976347804075   -2.05496885047086   -1.26913217709731
H          -0.20391148857129    0.91706008232592   -1.81610698514600
O           0.66405574073376    2.07333585877495   -1.21384443644108
H           0.47466161460044    2.89510408720733   -1.66868335450960
O           0.45045014743373   -2.36293100380082   -0.83397160389754
H           0.86296274729878   -2.87731778485663   -1.53017603179157
O           1.50567975748303   -0.06471343716243    2.26182790589602
H           2.09080585927182   -0.50780870147961    2.87745933608225
O          -0.55029998596124   -1.63340210535492    1.71045722670588
H          -1.09272271926000   -1.01070207481399    1.18961025768504
H          -0.21067135679050   -2.26271650393526    1.06359167435033
H           0.71050892254635   -0.65038789064004    2.16214120741713
O           1.99088592809244   -0.30056964149417   -0.41157908733212
H           1.71385443460193    0.52034486743357   -0.83597515986350
H           1.91540530917682   -0.14168669011172    0.55129518276849
H           1.02956440673531   -1.55237539799646   -0.71404544372254
N          -0.17634569855345    2.15919340796328    1.22911479455741
H          -0.51897867241025    2.96158534555860    1.74021082440006
H          -0.95337322530921    1.52416762370176    1.05945934579490
H           0.35733671539919    2.18519582440069   -0.24060822494717
H           0.48956633732119    1.66416472161877    1.81439837261982
