    26
        -50.45911189  Gyration_radius:  2.4353195961 Dipole_moment: 3.788
 S           2.13296816023118    0.31820919457627   -0.17004523505733
O           1.32529788228065    1.09479190663198    0.75971240045686
O           1.95739531416537   -1.11109190173623    0.01666677759795
O           1.94541385749343    0.74908964991323   -1.53923765092014
O           3.64864848418828    0.61267757603474    0.18425463316451
H           3.79181505346522    1.46346319663363   -0.21676057326123
H           0.77687605082308   -0.31893245664657   -1.99598631875273
O           0.14446068860045   -2.04063170805238    1.48197083248385
H           0.96651066829033   -1.74417913708349    0.94152309133687
O          -2.48710629411520    0.54595892577489    0.72104853980545
H          -3.35373693696759    0.95087993611795    0.75710968635367
O           0.07133581399220   -0.96568207415321   -2.21942495922055
H           0.53700832955162   -1.75473956175494   -2.50357556265608
O          -1.60079442343302   -1.80713770884918   -0.29584833753541
H          -2.07918432406098   -1.02054849022236    0.03225474665914
H          -1.05813205696080   -1.49894031374648   -1.05717038878786
H          -0.62301855307206   -2.08149198620693    0.75312022182768
O          -0.43536683991936    0.17436371850254    2.49232172835312
H          -0.10334504123181   -1.18721463985302    2.05256900348163
H           0.26044533602977    0.64833924063626    1.98410331226212
H          -1.27218941558217    0.37652926028460    2.03181426896084
N          -0.87878174425036    1.79342894052083   -0.92345181169391
H          -0.95425317766353    2.77236848600328   -1.16976318978715
H          -0.78072181425049    1.26815900323609   -1.78457525597611
H          -0.00490105872724    1.67240543818004   -0.41047565704369
H          -1.92664395887243    1.08992552525908    0.07784569794530
