    26
        -50.44238932  Gyration_radius:  2.5207983359 Dipole_moment: 5.651
 S          -0.65426606018062   -1.21526776354485   -2.14836622219890
O           0.13554480772570   -2.40333436967127   -2.18830882141377
O          -1.88796259348812   -1.16061864782947   -2.84628025087112
O          -0.94472859309893   -0.86772893332458   -0.64213182748925
O           0.26723897068890   -0.02975037727314   -2.56648505842730
H          -0.15839611127934    0.83093824423355   -2.29676991637900
H          -0.01831757657901   -0.91877050928848   -0.25793287602203
O           1.52887889833545   -1.24714596753366   -0.15902258888698
H           1.45760649847996   -1.94819696187958   -0.82320073979408
O          -0.76365840445172    2.15448571658999   -1.61700771285511
H          -1.35552001159680    2.60308249709783   -2.22330535224155
O           0.00707327743381    1.06404422445169    2.18504567867830
H           0.14739068423577    1.77490027439809    2.81256987372946
O           1.51792338938487    1.52903618926521    0.05888348934770
H           1.76180048644078    0.63447493111401   -0.21975030703774
H           0.95422177928285    1.89275171188976   -0.63428467026553
H           0.63001849175609    1.23899005542178    1.43347203817550
O          -2.10864981909411    1.35613170496700    0.48051135596370
H          -2.22429784419386    0.45064477853600    0.16899705100197
H          -1.44620486440864    1.28772154496083    1.19805291550161
H          -1.31190100525662    1.91584039234410   -0.81270902136971
N           0.87372570104091   -1.84465472956239    2.34435940636528
H           0.48655578820879   -0.91485939928995    2.49166986305704
H           1.46866436722245   -1.63873806168652    0.75367219098425
H           1.52435180244299   -2.03514129748601    3.09572478048913
H           0.11290792094973   -2.50883519688997    2.41259671196036
