    26
        -50.46208156  Gyration_radius:  2.4058308916 Dipole_moment: 7.104
 S           0.91624998087279    0.09756095864963   -0.26422164791888
O           0.69914808869412   -0.07742972635122   -1.72090430216379
O          -0.49923454222246    0.46101423748954    0.28744464500080
O           1.37244582013402   -1.12905693636408    0.34689196823080
O           1.73143547424559    1.25786055715540    0.01221675738190
O           1.34689724335096    0.24736901844543    2.72954904401611
H           1.49930701848201   -0.20939057236564    1.89157862201830
H           1.80466251244050    1.08504430428739    2.64282267241697
O          -0.07849927791893   -2.35965566026259    2.30938519364977
H           0.58081259320988   -2.13018991962871    1.63306108470660
H           0.05072258755776   -1.70069369284023    2.99864659875291
O          -0.27256725555213   -2.57527062216796   -1.51327513634846
H           0.12050321550517   -1.71024844077207   -1.73115764645411
H           0.41309624820485   -3.04320183219992   -1.02933853814862
O           0.00257874583889    3.17130248597623   -0.10340497128065
H           0.78488811640114    2.56148317822201   -0.02505775371777
H          -0.54719269253509    2.94589841091946    0.65277928006580
O          -1.84630003349738   -1.64859382521121    0.44890430864822
H          -1.10104080892468   -0.38284222548030    0.37836100917262
H          -1.46182436698032   -2.12939901771994   -0.31785391077914
H          -1.40687629769068   -2.03538075721284    1.24156470185669
N          -0.84797859547619    1.87721655355653   -2.20164989002975
H          -0.17148217345786    1.01255254752931   -2.09551626568347
H          -1.80779763268164    1.55577135700005   -2.11281356326636
H          -0.58151313297944    2.51283110756918   -1.36747417672838
H          -0.70044082506458    2.34544853175552   -3.09053808341296
