    26
        -50.43891920  Gyration_radius:  2.47070090194 Dipole_moment: 7.242
 S          -1.46301305757664   -1.64076673718963    0.84813084184808
O          -0.34038515074687   -2.40625751169308    0.32306207675388
O          -2.73003364599404   -2.30002709800760    0.82732819029223
O          -1.13170430583641   -1.42886716972932    2.42527115182539
O          -1.45024822971909   -0.28619569434374    0.30677949624566
H          -0.99747005285831    0.94820319302897    1.02167692125024
H          -1.78245598135239   -2.00720378487875    2.80883022506155
O           2.23494891913952    0.55791944813644   -0.79077976152609
H           3.13060512810088    0.87735829037787   -0.67702187122665
O          -1.15157163677656    0.97491639353539   -2.45495055596727
H          -1.00482419470431    1.05937902331066   -3.39937889421980
O          -0.67215238662912    1.85825022238690    1.33202644340138
H          -1.46693129378933    2.36483480454519    1.50886949197172
O           0.21048643554515   -1.18391315650437   -1.96939661446613
H           1.06333541472733   -0.79991917538761   -1.73187627331500
H          -0.06314558712474   -1.70834348187194   -1.18777463682669
H          -0.81416349828777    0.06625313627875   -2.20087489236746
O           0.36404442360831    2.25754610698972   -0.93109650022054
H           1.17018976267684    1.61035456141149   -0.90632967606251
H          -0.32220206949914    1.78921824918687   -1.58115323292546
H          -0.06078340522040    2.18025553119246    0.01825240784310
N           1.45995199184846   -0.57844584578352    1.36983970227892
H           1.96317310215543    0.08416085530625    0.09862765230782
H           0.89734286064974    0.04518931656054    1.93667178767672
H           0.82379745684916   -1.30649434097077    1.02711206001211
H           2.13320899080252   -1.02740513589340    1.97815444035765
