    26
        -50.45996682  Gyration_radius:  2.52888947359 Dipole_moment: 4.304
 S          -0.22504273234997    1.86643654850080    1.34370664757952
O           1.01089586024100    2.51148844379922    0.95827474938227
O          -1.37046987708779    2.31409731134781    0.55216243796766
O          -0.15106188129416    0.42152272041230    1.37705018235218
O          -0.51316075750590    2.32852668098696    2.84109480440028
H          -0.41311614352085    3.27409776459816    2.78896708718666
H           1.12854169298072   -0.54905006079570    1.36420221344777
O          -1.98135893724221   -2.19212109629917    0.11648459711374
H          -2.46683147260090   -2.92307476144857   -0.26800523323735
O           0.48533393921247   -0.09393501937864   -2.23642709982574
H           0.71063873878628    0.22004051161664   -3.11290617063999
O           1.91721558954783   -1.14018466829813    1.26142798365585
H           2.11630733232325   -1.47222771401735    2.13747620004191
O           2.27881638763155    0.85615896627427   -0.65583188279963
H           1.87540753675927    1.55912987046780   -0.09884161671265
H           2.47456769525016    0.13425274690380   -0.04081479018686
H           1.18897167167411    0.29326194614182   -1.62177153204093
O           0.51858148244259   -2.46633917422024   -0.67962756837576
H           0.56581541442800   -1.78554085861921   -1.36555568814114
H           1.09178944314588   -2.13670498540561    0.03736895821260
H          -1.02246239024217   -2.36824038101128   -0.07171339997912
N          -1.86275094642581    0.26794868257896   -0.93562111753851
H          -1.71607918768366    1.09888543980853   -0.27056784825543
H          -1.98913312595298   -0.62044292437517   -0.38668607952140
H          -2.66398778721716    0.43735276186022   -1.53503483550088
H          -0.98742756529520    0.16466124857639   -1.49881100858362
