    26
        -50.44045829  Gyration_radius:  2.57007035723 Dipole_moment: 5.459
 S          -0.15946942064672   -0.67701194130640    2.45328793245013
O           1.24489067151899   -0.48062771566257    2.24185242008256
O          -0.69649437666810   -0.35209903471694    3.72367653969129
O          -0.91719993911826    0.13229654652114    1.32964858675406
O          -0.55675945122207   -2.11901943560307    2.07184082302039
H          -0.13075434104804   -2.33559246513749    1.18625891813191
H          -0.38839139557073    0.97878032224918    1.17828753011875
O           0.53582578392544   -2.61162524689961   -0.21427537173090
H           1.15072833897592   -3.33709841755645   -0.09579363799983
O          -0.19838803873367    0.71880427243192   -2.49151941546999
H          -0.32432763059182    0.56811335353513   -3.42894078778257
O           0.34431459455301    2.30831654029126    0.89708861829333
H           0.22532834254461    2.93779185735097    1.61032713432937
O          -1.59216364673070   -1.04482478503142   -1.09116530348111
H          -1.04190195501942   -1.83431229610770   -1.00307579351077
H          -0.73658764776374    0.03244427106276   -2.02066109535482
H          -1.57954125863750   -0.63573114263146   -0.21207263390876
O          -1.17092857957312    2.85453142374210   -1.19003403329053
H          -0.77043939541689    2.16702828764403   -1.76618633588267
H          -2.05924925537114    2.54921472183159   -0.99383434613074
H          -0.15991189148555    2.64843592459870    0.11287337122886
N           1.86336120791014   -0.41854496406544   -0.51332357154613
H           1.36560610132463    0.27031849951020   -1.06699860014254
H           1.10356689357968   -1.76663663588116   -0.38886220955853
H           2.83412355412021   -0.40749879953786   -0.79658418088526
H           1.81476273511344   -0.14545315056497    0.46818543257051
