    26
        -50.46846770  Gyration_radius:  2.39944107476 Dipole_moment: 5.639
 S          -1.33310640073220    0.41434626375558    1.16832204240748
O          -0.46089293901139   -0.72630290898656    1.54014350013921
O          -1.58753695801535    1.28119489519281    2.28698569961358
O          -0.73749730539886    1.12229038933281    0.04075233268516
O          -2.67811155455157   -0.20334901184624    0.68013143984188
H          -2.47137710362012   -0.66669304298262   -0.16697150413136
H           0.24347049387642    3.13007683583618    0.94508285580191
O           2.06796888517007   -0.39946219667425   -1.33854181848072
H           2.77700519262019   -0.27741949150211   -1.97096631059587
O           0.54330279436629    2.77277864104142    1.78653507848639
H          -0.25790548906018    2.32488962224247    2.14561357294967
O          -1.99854987234932   -1.58302756674298   -1.49376584118005
H          -2.62806287550067   -2.30077922989397   -1.58216228263935
O          -0.16629593553218    0.40387343499903   -2.39529938923276
H           1.23293750426254   -0.08179940748073   -1.79688113708196
H          -0.81676997960026   -0.29480248614350   -2.53192584315521
H          -0.44214343612934    0.81595775568042   -1.54492616444891
O           0.22686325519273   -2.38985846523091   -0.39189143512344
H           0.98027029388806   -1.90932822644192   -0.76148921484180
H          -0.01877187910898   -1.90321757466390    0.42522066585495
H          -1.15594828151367   -1.98752544601731   -1.14277969619323
N           1.77724636470788    0.49587957382585    1.22140942687641
H           1.99779782296184    0.30861709076799    0.21998825742383
H           0.91372713541290   -0.10238226243642    1.44942037320766
H           2.56087734173638    0.26814899431707    1.82447104984778
H           1.43150291591774    1.48789381005357    1.38352434195980
