    26
        -50.45730957  Gyration_radius:  2.44924406547 Dipole_moment: 7.988
 S          -1.35494843558369   -1.41389768611458    1.42318647006537
O          -1.33571732201351   -1.41542463019404   -0.07240571994869
O          -2.48827472211741   -2.08115406101129    1.95763330703513
O          -0.04083262729195   -2.22158372556323    1.80458602400811
O          -1.11150511362778   -0.06194397934501    1.90755494917043
H          -1.28823138491378    1.30728103287996    1.18784094022026
H           0.63954205001214   -1.52729037823364    1.78737645759149
O           1.94575840104573   -0.43130286844270    1.34542799679101
H           2.45485613220732   -0.24795791895667    2.13567917849118
O           0.73296343694379    0.75773061816355   -2.39427740691150
H           0.77849831761461    1.01559869406942   -3.31508759251286
O          -1.31972975411911    2.18197380135278    0.70474787718868
H          -1.76573209888418    2.78976119562910    1.29541483640735
O           1.31825592607634    1.80501358057416    0.15475753671590
H           1.68210607112649    0.46063219751170    0.97366834297231
H           1.26293160971882    1.59140764392944   -0.78821446668550
H           0.41391539109850    2.06898573772027    0.41219127960996
O          -1.70896269504787    0.75753989872514   -1.58238667433728
H          -0.24643366982776    0.79749244765803   -2.13742903060384
H          -1.75279195823682   -0.08886852846611   -1.09073412777591
H          -1.73649796288904    1.43871017417972   -0.88838818230742
N           1.01612717500812   -1.51428394348299   -0.98175271545388
H           1.62671766042221   -1.31472653023304   -0.17835258405888
H          -0.03054126327142   -1.53294911221576   -0.58769330473733
H           1.05732345949007   -0.72108332678071   -1.65826661509762
H           1.25120336706256   -2.39966032334934   -1.41507676583419
