    26
        -50.45123067  Gyration_radius:  2.47052737173 Dipole_moment: 4.661
 S          -1.71541456424256   -1.16485357599349   -1.20266821028625
O          -1.63594447930374   -0.44663870846815    0.04995591140925
O          -3.01255649979535   -1.34794264779312   -1.73900308821336
O          -0.77879003673276   -0.44753449766534   -2.22086059494116
O          -1.00654579837467   -2.52189997035937   -1.04691340489298
H          -0.04766818228066   -2.29599141598443   -0.84761207014450
H          -0.66137969236402    0.52214641881903   -2.00471151442155
O           1.44272116550781   -1.86484723716329   -0.63778976991289
H           1.93249826407306   -2.18276942722786   -1.39890217564478
O          -0.39346600577381    2.04733088935979   -1.66229520413699
H          -0.91982854192466    2.62915917794400   -2.21264635680189
O           1.15749312871609    1.29707484083809    1.98639973222942
H           1.71522804036502    1.51084531607697    2.73457852141889
O           1.87119937431352    0.72200332179378   -0.59219502672213
H           1.58673143440045   -0.87621717923526   -0.62032961219528
H           1.26342418179306    1.23565293156727   -1.13794481772529
H           1.71318194584234    1.01026245412009    0.32661958061510
O          -1.18864072907928    2.10543083396390    0.78675093409863
H          -1.55688221798486    1.20891668341661    0.69941528722766
H          -0.38071403208098    1.99496795836697    1.31787984232703
H          -0.71523332160359    2.17364263729696   -0.71303193158046
N           0.24841449262880   -1.17897783521545    2.08033633076035
H           0.88616339675848   -1.79737325022740    1.59237097696796
H          -0.53915472966600   -1.01903915513104    1.45204588863196
H          -0.09999352602817   -1.66666600639074    2.89559804814741
H           0.83515693283806    0.35331744328443    2.11495271378036
