    26
        -50.47304682  Gyration_radius:  2.4862089256 Dipole_moment: 2.171
 S          -1.90783361002898   -0.79945795841137   -0.47697067946759
O          -0.96712378621722   -1.66173373897289   -1.18322324592361
O          -1.40468674358623   -0.38236419183699    0.81794500576100
O          -2.37199779808277    0.29615636088461   -1.30308838398110
O          -3.18080212162781   -1.69418090425726   -0.17111052035043
H          -3.58915740153426   -1.76618797464024   -1.02737750961584
H          -1.28347185181739    1.45585153150750   -1.52356309830315
O           0.25269245093030   -2.39320779034599    1.05349965315472
H          -0.38535732093392   -1.71352617604390    1.34476903331599
O           1.93895170235571    1.37211089415379    2.10293757752722
H           1.76449071721462    1.20945350993390    3.03114284585155
O          -0.53240683066527    2.09486365329033   -1.63094850344996
H          -0.80690253335341    2.71884944877631   -2.30477026613717
O           1.08079877851940   -0.09770895503845   -1.82191705986438
H           0.67015311329920    0.78539797855121   -1.83323970884611
H          -0.05379614948261   -2.55457436773932    0.14409733945093
H           0.33275186152638   -0.72669611726014   -1.73819675719809
O          -0.37734544087415    2.07796262857718    1.13287172814575
H           1.08884413054977    1.74513818913617    1.73515021456038
H          -0.34155062549326    2.33979659694088    0.20037049569390
H          -0.84984691365780    1.22332111040926    1.12959288496339
N           2.21091514021664   -0.70947444828896    0.47171565491611
H           1.85914008206042   -0.39154174998469   -0.48466484345051
H           2.17469243975208    0.10712039383346    1.14057304279775
H           1.52641263496635   -1.45676802387175    0.79313529371807
H           3.15243605595353   -1.07859988928102    0.40126979673565
