    26
        -50.46026490  Gyration_radius:  2.46647268641 Dipole_moment: 6.823
 S          -2.09357514907370   -0.43154627248899    0.71996080516859
O          -1.26864409247739   -1.64511151928772    0.86126475007925
O          -2.86843019571647   -0.15853182174187    1.88701546420346
O          -0.99182165442645    0.76739311070085    0.63813982855314
O          -2.74594611542587   -0.36612316529112   -0.56439979855633
H          -1.72702745587126   -0.30004363518721   -1.77883554408084
H          -0.63755972286427    0.75844544656358    1.53274376566687
O          -1.05789118776922   -0.29243581817075   -2.51954670917100
H          -1.53326477087477   -0.58941755907988   -3.29698084989264
O           2.26088138489521    1.93891933568061   -0.44778341547224
H           2.32450347144646    2.75968767896027    0.04225921458216
O           0.13047366245708   -0.57139023155929    2.70278105117751
H          -0.26896370830600   -0.65306943416410    3.57004589909613
O          -0.08349973175199    2.09076121784679   -1.59850596409356
H          -0.30310620127671    1.35663470898838   -2.19596215740960
H          -0.59144428666039    1.88835321964504   -0.79929824222486
H           1.42778119805728    2.01389056823778   -0.99075471025810
O           0.53879710169535   -1.83369466275840   -0.98083538653508
H          -0.19620971277350   -1.94286309700113   -0.32741015714696
H           0.13626680369241   -1.29954186471103   -1.69327995921615
H          -0.43663183819357   -1.11802759390684    2.09268192734319
N           2.01531315313848   -0.47027823001563    0.64686074335448
H           2.13943163557441    0.50945666511084    0.27254540336356
H           1.44505426529167   -1.04251479534828   -0.09267842750085
H           2.91763146466355   -0.90803722814365    0.80038914714494
H           1.46788171253762   -0.46091499286870    1.51958328183168
