    26
        -50.46026512  Gyration_radius:  2.46620004646 Dipole_moment: 6.810
 S          -1.01252704148840    2.00199297466782   -0.22259774227972
O           0.44900269984721    2.19422593400890   -0.22110036001458
O          -1.65813679984432    2.72714525559324   -1.26868689448471
O          -1.18664056829583    0.42842474588966   -0.61210651131245
O          -1.57041583539621    2.07525783197718    1.10507729343062
H          -1.02471258443575    0.94295716408481    2.07427453910032
H          -0.89313406936826    0.42826895632130   -1.52843122522553
O          -0.63480506894205    0.23885115788885    2.66454857482387
H          -0.77234913743698    0.55093594763969    3.56025647913212
O           0.01174536554201   -2.98208948390729   -0.42131085870789
H          -0.53208955653241   -3.39235845403776   -1.09495579308293
O           0.67874931606138    1.02684021999046   -2.47672374191988
H           0.52251532910250    1.61457205717880   -3.21732022221165
O          -1.71728445578365   -1.69316286419807    1.05953486616369
H          -1.85116873507253   -0.96816561935265    0.43164525384214
H          -0.62623412486105   -2.57608062438245    0.22872383189667
H          -1.34976009716736   -1.24794527958665    1.84098888043411
O           1.66712963255761    0.46627743739817    1.27085424094648
H           0.95728517688589    0.22671914743161    1.89829747494501
H           0.67755995859120    1.60779942878230   -1.66740559144650
H           1.30488921587856    1.25708224906670    0.79918157206595
N           1.72209787190450   -0.99638605241091   -0.86137008504647
H           2.65504881003503   -1.34032211392243   -1.06317328306450
H           1.40810584350968   -0.35456906037762   -1.60351303840147
H           1.04721069899335   -1.80171720766314   -0.75336169899116
H           1.72791815591560   -0.43455374800358    0.07867403926691
