    26
        -50.45423379  Gyration_radius:  2.44497993936 Dipole_moment: 1.976
 S           0.01525905529936    0.51996307226644    0.96670804732039
O          -0.83065510677364   -0.62381178342801    0.53574415262352
O           0.13481304768242    0.51349807190265    2.43956697754629
O           1.36089538379559    0.32778410609725    0.35933847906031
O          -0.57768695300835    1.77065535150369    0.47928154869490
O          -0.30633774262677   -2.89331100518986    1.69606567553364
H          -0.56813500057393   -2.06727334324163    1.20789064750786
H          -0.99091561750531   -3.02503567821081    2.35383101473329
O          -0.32454779586048   -1.27887954140419   -1.86864643701860
H          -0.46796030723719   -1.02636986834708   -0.90173261744972
H          -1.07014318297373   -1.83671705580859   -2.09966457941083
O           1.26490974416062    2.15777037574976   -1.39150056530366
H           1.49326529425689    1.39115520915785   -0.78366591068293
H           0.66035915747980    2.65267863915253   -0.81675424037234
O          -2.33669178523395    1.68649973041359   -1.36149098490621
H          -2.72352290700805    2.56365395567906   -1.35764055551810
H          -1.74342037785697    1.64491136706021   -0.55048913799482
O          -0.40227100617568    1.03094470211479   -2.86149775629773
H           0.38593023397329    1.53830167133724   -2.32679203368454
H          -0.31689858997745    0.03625325097371   -2.55907123147546
H          -1.26003007613004    1.34094268217309   -2.38511931176634
N           1.77533241535279   -1.33328311723331    2.27720921723453
H           1.99941526674471   -0.91257731925610    1.34874018013000
H           1.06489039157228   -0.51176591589012    2.59307687214820
H           1.18018355060996   -2.17790154733944    2.13990316782665
H           2.58396290803924   -1.48808600023411    2.86670937153495
