    26
        -50.45212789  Gyration_radius:  2.45275252813 Dipole_moment: 5.976
 S          -1.25050885871171   -1.80417167412152   -0.68807995000147
O          -1.20810524394844   -0.52229480419032   -1.36179850078365
O          -1.22151088614362   -2.94018482666376   -1.53569147990838
O          -0.07547422403864   -1.84576211100286    0.32997965435663
O          -2.45193782543277   -1.83729441361218    0.26277584101624
H          -2.25310370563658   -1.10871531052949    0.93219559912342
H           0.80828136132558   -1.76680417953610   -0.15853937100945
O           2.09547762181068   -1.52084858542551   -0.96878413648966
H           2.16471806401367   -2.21439032694509   -1.62814813484373
O           1.01028104576102    2.38013544097713   -0.09656421769690
H           1.55834477912173    3.13594151908521    0.11570006568149
O          -1.87403454390771    0.10092920572638    1.83991737447441
H          -2.62858956828064    0.31805022273293    2.39144143743552
O           1.12944047106857    0.56009699279151   -2.16360018397453
H           1.84956722055736   -0.68356921393224   -1.46897731461411
H           0.21814557553884    0.22345498634780   -2.09467518532529
H           1.16246342236960    1.32184361759102   -1.55803073282594
O          -1.67622866549050    1.80200501580265   -0.09604590330930
H          -1.64419845387928    1.06842152912547   -0.73671190321264
H          -1.80066149734331    0.84081759015939    1.16099374556431
H          -0.78480802739861    2.19213374045677   -0.11781443073111
N           1.40532124340101    0.39766092956573    1.62595107580250
H           1.19386375947466    1.67506470305832    0.59151419836786
H           2.00903631050092   -0.26435488905069    1.15140483173201
H           1.76886502987396    0.53692423856173    2.56063254763940
H           0.49535560539766   -0.04508938697061    1.71095507353737
