    26
        -50.44238939  Gyration_radius:  2.52094492917 Dipole_moment: 5.653
 S          -1.85973609419630   -1.41691688363428    1.02772725635930
O          -1.51405053803307   -2.77633981037358    0.76442971585576
O          -2.70025763732207   -1.09909793752091    2.12527714361326
O          -0.52946983894895   -0.59437301377415    1.19435668075563
O          -2.42977265582257   -0.81755174438765   -0.29339869609710
H          -2.42990558554912    0.17795227098014   -0.23204812253820
H          -0.03064608965182   -0.87946922381927    0.37079226305151
O           0.33803429259603   -1.71792696909755   -0.92261980936457
H          -0.14228995361070   -2.49376437036777   -0.59857771855911
O          -2.16906336760222    1.76181027174318   -0.17699477991563
H          -2.93491556294377    2.21646202701267    0.17782681217080
O           1.84945182073160    1.53239444645887   -0.37126163407076
H           2.30097722566684    2.28137420057408   -0.76362314002201
O          -0.11818075837242    0.81217048892299   -1.99279583716963
H          -0.94368901430479    1.15740892181635   -1.63247372278198
H           1.16262553442795    1.25424926033944   -1.03037797240815
H          -0.14138810173442   -0.14838397323746   -1.87391127863349
O          -0.12844217791531    2.11633082664210    1.42169100717294
H           0.66228604393767    2.00361922700126    0.85565734588242
H          -1.40682808161909    1.96979160743123    0.43961013195064
H          -0.22610623263135    1.27050887912849    1.87485811615054
N           2.80936703470138   -1.33115120513774   -0.02998490263672
H           2.67926755819276   -0.32158653722209   -0.03270042273001
H           3.65934984715910   -1.53820995659626   -0.53875848093765
H           2.94044169850044   -1.62166927291534    0.93078917740774
H           1.30294063432845   -1.79763150994657   -0.69348913251749
