    26
        -50.44847536  Gyration_radius:  2.51430826869 Dipole_moment: 2.981
 S           1.47789757702529   -0.28405138098992    1.00962085308995
O           0.41908187474054   -1.24283973891918    1.20938497381949
O           2.79943343073824   -0.81099814493406    1.00979193720002
O           1.21322995663931    0.45849697649287   -0.32849559217578
O           1.34281977548174    0.83716663546258    2.05026315257426
H           0.41837024955333    1.23517417657459    1.98783226038751
H           1.86846689320507    0.02725819191988   -1.01655597946365
O          -1.07049481870660    1.73752246521290    1.92842257404884
H          -1.36451389798902    1.88001300664237    2.83036301524086
O          -1.36849177581945    0.36764332482158   -1.46651716207959
H          -0.42827583872449    0.39071268706170   -1.24005399668532
O           2.73935721287156   -0.91543518673029   -1.73241927100539
H           3.29576451179095   -1.13924154404602   -0.97448199709688
O          -2.10460849197796   -0.39688453802875    0.98283459348200
H          -2.04329806928070   -0.21320325664953    0.01581847108984
H          -1.31797722417829   -0.93972771237085    1.16977799282998
H          -1.56178422087666    0.90766652749990    1.59123776667192
O          -1.91931450286999    2.88848778168867   -0.51764754525216
H          -1.65109524355490    1.29741922753420   -1.40614003620753
H          -2.81911680402752    3.15722633267505   -0.32503877515246
H          -1.49948875199834    2.68216424480431    0.33101723660858
N           0.62200640186298   -2.47476465063141   -1.42275450642949
H           0.50157352714718   -2.27561775181574   -0.43175594080500
H           0.56734659734615   -3.47769569766754   -1.54903525962574
H          -0.16574602508875   -2.06053416801432   -1.90846371842793
H           2.04885764675394   -1.63595781768693   -1.79700504660055
