    26
        -50.44974524  Gyration_radius:  2.55361487497 Dipole_moment: 5.644
 S          -2.41163533494479   -0.90222216140742    0.71272581118869
O          -1.38374817007817   -0.03564485640190    1.24918125504816
O          -3.53635447814819   -1.15960913547272    1.52791519637892
O          -2.88514210229154   -0.31511026844616   -0.64274518654491
O          -1.74639070301764   -2.24857023797320    0.32283604423880
H          -0.79246878640888   -2.12546749911417    0.04776233085427
H          -2.15288256045945    0.17265269542754   -1.11369182939354
O           0.77213004917705   -2.07131556617588   -0.25365324257188
H           1.12833101058878   -2.95726963387562   -0.16934780331367
O          -1.09286674884629    1.12095948018764   -1.85989652908276
H          -1.58195757669906    1.71278977517964   -2.43405251063686
O           2.26029615755318    1.59291253466163    0.07389327091691
H           2.88295596433315    2.24369017596526   -0.25199508232248
O           1.46552032191537    0.02586175257592   -1.91460010573762
H           1.29315703062414   -0.81895011463454   -1.46893430704084
H           0.58785983733836    0.38615705548288   -2.11377994540106
H           2.05015028642408    1.00044901718300   -0.69390376214834
O          -0.37269504637712    2.28024791022615    0.31214657131820
H          -0.76958968510260    1.57128356514444    0.84955431827988
H           0.59367555982167    2.13331588715073    0.35084307663626
H          -0.80821095105454    1.66716914536566   -1.05435290285304
N           1.36636174793829   -0.63098519143814    1.80795815631560
H           1.75260611123660   -0.94921528682717    2.68634714769374
H           1.07819297092680   -1.54223810075005    0.57285615506948
H           0.40729957569174   -0.32766267662334    1.96324663973322
H           1.89540549985163    0.17677171457577    1.49368723336916
