    26
        -50.45966285  Gyration_radius:  2.59336940789 Dipole_moment: 3.965
 S           0.59703878754688   -1.73083802543960    1.59907373698844
O           1.76290532563603   -1.34884169321407    0.80355154677990
O          -0.09579969620147   -0.56535271443713    2.09763405334397
O          -0.24951238805925   -2.68418787632100    0.90722863193438
O           1.16318893258695   -2.50063293380665    2.87098590627126
H           1.42990976325304   -3.33551202157684    2.49891059269883
H          -0.91740936834104   -2.03137650267683   -0.39578850020307
O          -1.04886694804944    2.06694122248367    0.24211136957944
H          -1.33847777099127    2.80053087277275    0.78536013726843
O           1.87916929443634    1.50775414288395   -2.30482323957910
H           1.92366675526095    2.33014451300144   -2.79428735093106
O          -1.40948062513223   -1.59661055582670   -1.13889639452608
H          -1.75201567717584   -2.31023310116007   -1.67935916573129
O          -2.39581709865567   -0.02631470815545    0.92339825675732
H          -1.63098589100682    1.28848707035134    0.50995464102574
H          -2.33000403466157   -0.60855597135890    0.14984498723616
H          -1.67429710979178   -0.32067135206768    1.51843610229166
O          -0.66098429252488    0.81193119306618   -2.26090225006067
H          -0.95128833113833    1.38702441451505   -1.53975161594725
H           0.96263851215141    1.15573560552570   -2.44116027354182
H          -0.86791412821924   -0.09104572753380   -1.96405146115997
N           1.52702458249355    1.17701557515186    0.33035318845142
H           0.52557345668119    1.46209788300468    0.43301191501018
H           1.62362744917260    0.12454124425179    0.53228784908645
H           1.81767611019964    1.34708200669970   -0.66461519646203
H           2.11043441052087    1.69088743986535    0.98149252342026
