    26
        -50.45966282  Gyration_radius:  2.59338104106 Dipole_moment: 3.967
 S          -0.69805620308142    0.63537749188959    2.24015157854583
O           0.49094292940287    1.38936457678514    1.84536010789962
O          -1.69516965856253    0.65351781819973    1.19499253417164
O          -0.36824006656174   -0.68789296814544    2.73438275397578
O          -1.32411384364580    1.41427709013236    3.47797599364128
H          -0.71417376415051    1.20346051733495    4.17803932222373
H           0.25299778320487   -1.60521853621778    1.57576753982283
O           2.60079656213860    1.05695151999577   -1.79806185477141
H           2.87506785960065    1.14869003808928   -2.71139710242906
O          -1.13892424407152   -0.09763710891415   -2.03062834123953
H          -1.88329463715049    0.13706964836565   -2.58559934663323
O           0.53841883986207   -2.20114595900240    0.83637080930834
H           0.95225250384095   -2.95782390265958    1.25453909495073
O           1.39624183742485   -1.27871471657895   -1.62006599903404
H           1.21621937588483   -1.61710707581931   -0.72602574866814
H           0.53301811752896   -1.01827826780013   -1.96943786407377
H           2.31290388331276    0.11459520022079   -1.69052760052750
O          -1.99560939343009   -1.61115844424049   -0.12399169462276
H          -1.20227763832781   -2.08490830168137    0.17254887190107
H          -2.06672097617538   -0.84232506719120    0.48029089958999
H          -1.51135903604396   -0.72223400106013   -1.33216045746238
N           0.27917468272055    1.80828735705330   -0.69218153562399
H           1.22787906433551    1.67113990668579   -1.12181861069218
H          -0.37508339626857    1.10738324241535   -1.11097942230179
H           0.36250982554829    1.63444286030157    0.36641624980831
H          -0.06540041733538    2.74988708183878   -0.84396016776369
