    26
        -50.46740477  Gyration_radius:  2.44312124938 Dipole_moment: 4.856
 S          -1.94552848566622    0.61450740929657    0.09913951910112
O          -1.58182795467305    1.43496717884098   -1.04040713464428
O          -1.92451209643350   -0.81132671638919   -0.18989993802613
O          -1.17340100611639    0.94053678690295    1.28753166480391
O          -3.45810557899620    0.95127867181271    0.42676023741027
H          -3.46852014613475    1.90288493825323    0.44557267267187
H          -0.01643901183622    2.09617102577878    0.70989045008369
O           0.92456388521402   -0.30038258623840    2.48263235131837
H           0.14879829565317    0.26681900472305    2.32596264116998
O           0.62941433993101    2.57210908586115    0.15709403100932
H           0.20755471436773    2.60686235912867   -0.70684150894168
O           1.66994032717691   -1.18471048815796   -1.41665638250923
H           2.29599371774540   -1.45053869103275   -2.09134863173227
O           2.49530235383132    0.66359357315025    0.59016691767121
H           1.65092448179250    0.11159716568958    1.94651252659295
H           2.32550141423254    0.07918710393924   -0.16193413589137
H           1.98511338835640    1.47994129579336    0.41286870122066
O          -0.56023128336919   -0.43302084576562   -2.56724002696990
H          -1.20680208884350   -1.09746229742136   -2.30994494731172
H           0.86750781258126   -0.84137410134789   -1.89783945480662
H          -0.88900516079007    0.38052402076769   -2.12573543992623
N           0.20784315322207   -2.03282381589972    0.72434496914770
H           0.09434393367570   -3.00395056344272    0.99102227709495
H          -0.70882811217805   -1.61344932726102    0.40034459199760
H           0.54511886441237   -1.40687296102321    1.55914401644250
H           0.88528022283276   -1.92506724594079   -0.05113997696549
