    26
        -50.44931639  Gyration_radius:  2.50830548659 Dipole_moment: 5.310
 S          -2.19287033199155   -1.17542443963463    0.46366583146070
O          -1.32395640251530   -0.24654381493949    1.15358889452572
O          -3.51670472254700   -1.28450112567575    0.95200900391854
O          -2.18504145932298   -0.80866260286974   -1.04825817567289
O          -1.52407515596474   -2.56732282230614    0.45349944930089
H          -0.61925489435121   -2.42280038461226    0.05640525020043
H          -1.83244005367572    0.10913821764571   -1.23596834648781
O           0.84814791536830   -2.07684857780940   -0.45142370834968
H           1.38511469771146   -2.86480157050416   -0.55283332463108
O          -1.29360807065872    1.55004515187117   -1.61275744124208
H          -2.00806743660815    2.10116825813704   -1.93565713505414
O           2.11637057624837    1.70526355977488    0.19994100000645
H           2.68148330276820    2.41119751075243   -0.11604301551957
O           1.21446213557201    0.30316412458178   -1.86837505398105
H           1.03833497428219   -0.58663644506077   -1.52349622326503
H           0.35028802544018    0.70562570011130   -2.02822617545749
H           1.85952198253426    1.17748832317143   -0.59892773277840
O          -0.50626971701753    2.28504437404329    0.72016426121479
H          -0.84777978211578    1.46072476707193    1.10868271240614
H           0.46355474368414    2.16876396465380    0.66951530008046
H          -1.00016273596617    1.93851438262858   -0.72559990822698
N           1.45073969406863   -0.75593748368405    1.68648160065458
H           1.85067885143455   -1.12329634067969    2.53923291427540
H           1.17723184938948   -1.59155415333357    0.39230356998387
H           0.47743049295501   -0.51307053787080    1.86021086273027
H           1.93687151127982    0.10126198455216    1.44186557990280
