    26
        -50.45481287  Gyration_radius:  2.63538036371 Dipole_moment: 5.286
 S           1.20075301846314   -1.65836450725269    1.57822380955593
O           0.71942776626221   -1.17313048391379    2.85040710135204
O           0.24251910649013   -2.58081847785685    0.95951350154951
O           1.57374662831086   -0.58874711390092    0.66668682451829
O           2.52280874829507   -2.49211449119134    1.84595582786957
H           2.29694444194868   -3.07414159416566    2.56658358180353
H           0.59896485778422    0.65651408630132    1.19351400836250
O          -1.73338440817460    0.06543168206442   -1.75017998316443
H          -2.36170720444323    0.19428969078251   -2.46087476799462
O          -0.16614631646945    1.08642860406612    1.64558372673293
H          -0.01090913901561    0.86849618358810    2.57223967586398
O           1.31086220065088    2.37259074051092   -2.05044157644275
H           1.51458125500610    2.64087293624864   -2.94667219548839
O          -1.02356450053464    2.34933610393393   -0.75786484148717
H          -1.48604511279899    0.98325732472821   -1.41556458146819
H          -0.76085784938272    2.17964441953168    0.15591546475566
H          -0.18092833643385    2.52381022660255   -1.23372153750381
O           1.12145286680463   -0.28568153944688   -1.97479590844836
H           1.37444598425765    1.38633981516704   -2.03537029240765
H           1.40268404403565   -0.48654518642677   -1.06330654370790
H           0.16143649571936   -0.39674743690928   -1.98746805187461
N          -1.69702013718252   -0.91849142265821    0.73204214585645
H          -0.96159344514460   -1.70970952184469    0.79903026921065
H          -1.85996114789450   -0.68536975414898   -0.27422865448969
H          -2.55587419132423   -1.17872046962410    1.20442505022828
H          -1.24263560543750   -0.07842983427197    1.18036794695968
