    26
        -50.45048647  Gyration_radius:  2.70098549536 Dipole_moment: 6.745
 S           0.20153341100375   -2.96665488379608   -0.40405336216216
O           0.57388715295300   -2.55814103800671    0.95323777575077
O          -0.15180913782750   -4.33908568837250   -0.56062060993707
O          -1.19158848128549   -2.15075594944086   -0.67070193599996
O           1.13092066848133   -2.42376988229222   -1.38092491826293
H           1.31117413945022   -0.90888344275597   -1.61723614849020
H          -1.72935465325048   -2.87245390263913   -0.97957291242267
O           1.51095377137128    0.07499281424784   -1.64415168090250
H           2.27888979970300    0.16772182375017   -2.20956628666252
O          -0.61441089017603    1.84495120462400   -1.60205741972317
H           0.07949212119207    1.20621753600741   -1.82713794223906
O          -0.92934145443502    1.10232791646280    2.03122595282864
H          -1.34496349486363    0.73016597484475    2.80961029939362
O          -2.21333876236205    0.37517235262921   -0.06491432349784
H          -1.94164016191918   -0.53031989930073   -0.27622695279772
H          -1.51166421513248    0.83294829599137    1.24576544269824
H          -1.77435377232553    0.94481502758088   -0.74201849440334
O           0.34703139599560    3.14161775219263    0.66644009355882
H          -0.01046658627379    4.02537139822558    0.76218775390131
H          -0.14797504576084    2.57322628553058    1.27757660061675
H          -0.22035012970542    2.41835124371868   -0.92257889024576
N           1.28450008320340   -0.11575683418647    1.03981027911440
H           0.48912501675053    0.41085851832517    1.46581030291425
H           2.13281220902837    0.02215015821169    1.57816465924077
H           1.01081646637286   -1.17725437950765    1.02272635733378
H           1.43012055980419    0.17218758797054    0.04920637044430
