    26
        -50.44527829  Gyration_radius:  2.56822582527 Dipole_moment: 9.807
 S          -1.76513975021691   -0.38929251002922    1.94138900875007
O          -1.48850477212438    1.02707480046430    1.87469552287814
O          -3.01858762651561   -0.79024654218960    2.47672377885667
O          -1.50873984188795   -1.00724847394723    0.58521209196985
O          -0.59983700234187   -1.02134370656498    2.82573597136929
H           0.14151887577785   -0.41061725030562    2.65808742955615
H          -1.63737963743299    0.31269558381446   -0.35147162601654
O           1.55701423782158   -0.59331313513737   -2.15594066671440
H           2.05941937696701   -1.01804042514440   -2.85226162648699
O          -1.58710118026000    1.19652652648804   -0.79120087945856
H          -1.92118584255155    1.78571128588829   -0.10499618981995
O           1.49750057382430    0.49131906953347    2.04650960744019
H           1.54524613585227    1.15027316861594    2.74045307428606
O          -0.61681734419552    0.47939001191708   -3.20774858647551
H           0.72693544235312   -0.25461624264594   -2.58000962401372
H          -1.13647826273197    0.70572791528589   -2.41373138111899
H          -0.52344499615237    1.29539593839028   -3.70295184344100
O           1.06353203422751    1.56945245626252   -0.31422205218052
H           0.09333099074802    1.53192664773248   -0.45411479610171
H           1.29916494847774    1.00096213953749    1.21481156158238
H           1.45314970645107    0.99377330347167   -0.98204357913966
N           0.90734716227726   -1.62977812577016    0.30411177815593
H           1.05362346453033   -2.62227353757143    0.44981115509490
H           1.20252020423315   -1.33352506095375   -0.64638281566233
H          -0.19908336456865   -1.38730053291014    0.42444555722918
H           1.40199647742994   -1.08263328423389    1.01508912945934
