    26
        -50.46507305  Gyration_radius:  2.55409770486 Dipole_moment: 4.282
 S          -0.03187032879457    0.62660777802223   -0.77634662676302
O          -0.65489186730087   -0.35982082357270    0.11699246136444
O          -0.50236937784628    2.02651441056713   -0.30548644068403
O           1.41978005559062    0.56753086453539   -0.67831626010879
O          -0.50901138098188    0.42946651269062   -2.14006671074512
O          -2.17196411119297   -2.37257259116834   -0.66645568277721
H          -3.07107270267151   -2.04777583584134   -0.73423784529182
H          -1.65325501241706   -1.64354757774984   -0.25276151437405
O           1.07640725709145    1.72244090396588    3.17521164155125
H           0.96130245990749    2.26028396033100    3.95995966505448
H           0.18156492100944    1.39217291510227    2.93048521544566
O          -1.34899027152641    1.05206560734751    2.25104591049243
H          -1.11740875296279    0.42519010624539    1.53438487416827
H          -1.65405393318760    1.84019648564941    1.79325511724622
O           1.66272200717560   -2.03045800900324   -0.61727935517597
H           1.23128536007254   -2.22650266639007    0.21887975808057
H           1.73202911711901   -1.04541920881032   -0.63689274267405
O           1.65677535750912    2.78066362094019    0.78217672253347
H           2.05522257976940    2.04494599143139    0.29039263236158
H           0.31250530663860    2.46311129432723    0.12290047731452
H           1.56456095094998    2.45850897943345    1.70799398843729
N          -0.22670371058206   -2.10384567119681   -2.45337052709905
H          -0.10181546514182   -2.52237354359008   -3.36807702019085
H          -1.07061131747898   -2.45694580380037   -1.94763167004746
H           0.60967832432110   -2.24522929862183   -1.81458458987271
H          -0.34981547508150   -1.03520840082572   -2.49217146824349
