    26
        -50.45048630  Gyration_radius:  2.70115482427 Dipole_moment: 6.732
 S          -0.78090474555141    1.01254241831239   -2.71456611149771
O          -1.94219395715788    0.71616026823399   -1.87107175329969
O          -1.02491315754744    1.88510078887859   -3.81559482351225
O           0.19452645849505    1.87020177288085   -1.71920945554023
O          -0.02903794951595   -0.19729241209146   -3.00325133556884
H           0.66990021772067   -1.03406171577649   -1.90929999796959
H           0.37286088299886    2.61117800482106   -2.28889259530434
O           2.26535661609288   -0.47941301745944    0.99734499886498
H           2.01001015176736   -0.86314016947008    0.14427934155982
O           0.98535911384979   -1.63218482904758   -1.16701663475085
H           1.27069252897733   -2.44251394277532   -1.59131166700701
O          -1.08498043588691    0.67595128343920    2.13624947065922
H          -1.76864572672751    1.32384345623523    2.30934023984175
O           0.43490381283173   -1.53495953970920    2.81063853090182
H           1.74926975971378   -0.96901274275623    1.66043550575875
H           0.78475212134662   -1.57249757455731    3.70182539822137
H          -0.14652071750453   -0.75910153825701    2.77227606669502
O           0.90405917308205    1.80657895243487    0.97989414017920
H          -0.30612426932774    1.18877758557200    1.73767954075372
H           1.56090187684391    1.06931496015932    1.00640905738662
H           0.67639830310501    1.91420333437662    0.04450674218463
N          -1.36355040589137   -0.93930045929836   -0.02687767892611
H          -1.64412675195071   -0.24832080814498   -0.83077910388637
H          -0.43883731618814   -1.34238046796067   -0.28650313061369
H          -1.29197708965213   -0.38644184598741    0.85678568974881
H          -2.05717850327683   -1.67323175216372    0.06670957452953
