    26
        -50.44103447  Gyration_radius:  2.55175646074 Dipole_moment: 5.555
 S          -1.03111725367183   -2.19959642869409    0.49860124209720
O           0.25922126587231   -2.27278098337997    1.12436436697076
O          -2.09350580147136   -2.94718017578834    1.06400668845120
O          -1.42605241193433   -0.68050356434232    0.42277554748120
O          -0.90012333805566   -2.54043159595169   -1.00341747914942
H          -0.01692094911806   -2.18317684512399   -1.33333045157075
H          -1.00117152942713   -0.24901709548832    1.22654005991261
O           1.37175226984014   -1.61592992648530   -1.79456078629006
H           1.96417258948413   -2.36761680150363   -1.85847103765539
O           0.90801786702077    2.13697454636961   -0.33352437976290
H           1.64088855351468    2.54583710854505   -0.79508077794774
O          -0.34979969714375    0.42635445605746    2.45602744001507
H          -0.76551360145830    0.20849375355972    3.29148104750361
O           1.99650575732208   -0.35802733557764    0.37759907787705
H           1.45640501840199   -0.96331658068904    0.91803453405470
H           1.68748237479601   -1.08890301665010   -0.99647167406312
H           1.57376331448539    0.51522877495658    0.41311153688294
O          -0.77572204524277    2.90044161621178    1.62112687568707
H          -0.47790186772975    1.39484004767275    2.29661079225671
H          -0.09367430338992    2.78048736046461    0.92993180191145
H          -1.61782081688602    2.92308833836634    1.16237969304466
N          -0.52995431593626    0.70425724480370   -2.04861834789775
H           0.36253294190589    1.65360095927937   -1.01866197224836
H           0.09907832180609    0.01578102383179   -2.44774510144662
H          -1.11651792043935    0.21070541536655   -1.38140312528835
H          -1.12402442254389    1.05038971418843   -2.79130557082552
