    26
        -50.47202830  Gyration_radius:  2.4771808374 Dipole_moment: 4.473
 S           0.48947956566683    1.45171612644942    0.05721303044426
O          -0.91218481091923    1.55971792161939   -0.27264569280141
O           1.16123279554846    0.44187695179308   -0.77907695296244
O           0.72699839919057    1.16270574469899    1.46837435710212
O           1.14975460979557    2.82413372176125   -0.27403725972565
H           2.03067853254981    2.76533383295698    0.14782769145951
H          -0.03292302899918   -0.21843627385548    2.19910956457530
O          -0.75181270751925    0.27918263813365   -2.61927438723544
H           0.13643217662997    0.29787514128147   -2.21720243491614
H          -1.22182862241365    0.94251969448432   -2.09214686773600
O          -1.64371401358084   -1.97024307418822   -1.62720344593722
H          -2.08244345674474   -2.49994611674361   -2.29369160417421
H          -1.35176756700700   -1.12834061834775   -2.08103731875542
O          -2.49169650477205   -0.43533465183950    0.64650225747172
H          -2.06035179998658    0.39226048814885    0.36344312658743
H          -2.44473660038484   -1.02806728336008   -0.11546570819479
O           3.11708673219576    2.21866692550125    1.38546217191286
H           2.33607159155348    1.67728726151017    1.62385432502480
H           3.25797127606304    2.82875322708761    2.11310804494828
O          -0.48730449977914   -1.08354830369373    2.25474263159857
H           0.12568105966992   -1.73556091897550    1.03407117411065
H          -1.38778435725818   -0.90348712926704    1.89564293475350
N           0.50809640104697   -1.94958331630418    0.03645712885128
H           0.89409149269954   -1.02207938830407   -0.31161093842895
H          -0.28678639465097   -2.19808512147738   -0.58253476672232
H           1.22175974136628   -2.66931747901681    0.04011892873189
