    26
        -50.45970184  Gyration_radius:  2.46857638369 Dipole_moment: 1.815
 S          -1.21762141555242    0.23218447333351    0.41754965512176
O          -1.40694335939425   -1.19656157687391    0.55262745184243
O          -1.10377327239186    0.64802669052072   -0.97885542260836
O          -0.05077508425255    0.69570607803580    1.17859917212843
O          -2.45983971330179    0.97042525735162    0.98720595908048
H          -2.46140788573416    0.63829053858875    1.92403269317331
H           1.24730257843259    0.98787786063352    0.52791287511269
O           0.84381064058538   -2.52141344924501    0.34822114492401
H           0.00618882265579   -2.01543709711859    0.47523250689058
H           0.58654612812837   -3.34243063380403   -0.07627812658545
O           2.05275576569896    1.18706657823038   -0.08756618919558
H           1.65792480673026    1.78803180436947   -0.79130649070048
H           2.24977175579147    0.19168731303839   -0.59931540347823
O           0.27806206742693   -0.60082821222386   -2.87071029788533
H           0.38685927950785    0.11322876342037   -3.50270414824299
H          -0.35848028139058   -0.26907625166938   -2.20313344874445
O           2.28404690644737   -0.98687224281324   -1.21616107382835
H           1.86800282111728   -1.62171423148181   -0.57324734787611
H           1.61950750435860   -0.90574334668787   -1.95003907625154
O           0.56289667013335    2.49840019114988   -1.74842028805305
H           0.25035617421678    3.36436168392932   -1.48216502842652
H          -0.15663718187376    1.86000292289426   -1.51346782029579
N          -1.84714426542588   -0.25675800165016    3.19180585183878
H          -1.84267279012678   -1.13643064787117    2.68683265640226
H          -2.08639835158281   -0.43031821677854    4.16021051995136
H          -0.90233832021591    0.10829372281906    3.14313966572103
