    26
        -50.46021129  Gyration_radius:  2.62227216501 Dipole_moment: 7.191
 S           0.50906804038017   -0.66700083092375   -0.51112168386208
O           0.86027642628039   -0.60913083314881   -2.00774595398443
O          -0.70831085494448   -1.42149514399377   -0.32129435047776
O           1.66445263805949   -1.26471941507571    0.15258158759495
O           0.34926478987600    0.73894242572653   -0.05462148363640
O          -2.53937252602397   -1.99268387303111   -2.16015602364357
H          -1.96116909375540   -1.81569320528767   -1.38896485309403
H          -2.31858242417944   -2.87686157560500   -2.45743837090615
O          -0.78019514348000   -0.22430181043128    2.17228458038889
H          -1.06474147187610   -1.07081204572192    1.81360393296955
H          -0.49735040388626    0.26729384591249    1.38062287585792
O           1.21894812193513    0.28612101542711    3.82753862345493
H           0.88639141386558    0.94542433458291    4.43893222563480
H           0.43193527937335   -0.03766042291795    3.32510730711345
O          -1.50728885232375    2.03757120159203   -1.45578606242563
H          -1.10356582350702    2.87483290902316   -1.69000543193773
H          -0.86796673947759    1.57279821392978   -0.87654859576078
O          -1.22824221501414    0.06406582997590   -3.26563453996774
H          -1.84497123138354   -0.66118003315954   -3.02343573592850
H          -1.50985066821947    0.83537107395863   -2.73140089059101
H           0.03680551615176   -0.34039490467436   -2.56867302605501
N           2.43971222645770    0.70452418514055    1.50511738145315
H           1.72559933447880    1.22814953694538    0.96574010967232
H           3.37510841520157    1.08540258772046    1.42152247937021
H           2.11936228896127    0.60241963431614    2.50322781785535
H           2.31468296704331   -0.26098271027076    1.00654808090124
