    26
        -50.46931066  Gyration_radius:  2.42127268697 Dipole_moment: 6.630
 S           0.05609480401346    1.15475444665468    1.01252568292811
O           0.55244205157826    2.34852658972338    0.38307740439777
O           1.00258219175062    0.03428377921637    0.87797402458039
O          -1.26312329621007    0.75135884355543    0.51942095067430
O          -0.09435558726964    1.41929579570366    2.53905249706879
H          -0.43046074560169    0.55968799641535    2.86544217952338
H          -1.26975723481107   -0.45112268118346   -0.39996835224751
O          -0.72552327202432   -1.09645926204645    3.20174466101533
H          -0.14878765502184   -1.35314904038843    3.92502728739985
H          -0.50570070123768   -1.67149095085125    2.44971363512347
O          -0.90982591146283    2.25811945134800   -1.84905856748245
H          -1.74990525466749    2.05409511598972   -1.43100861794165
H          -0.31212908401333    2.44186323397671   -1.09685464245896
O           2.33757921858529    0.77144443422039   -1.30153903159132
H           2.28896412513360    1.72955419610101   -1.24068933866390
H           1.97032597921391    0.45871271310230   -0.45242535951824
O           0.35022994486898   -2.42643209591449    0.94927622232072
H           0.66306980334338   -1.47608164146258    0.92701443767587
H           1.14490718696070   -2.96257291021871    0.96160806372805
O           0.26788909971961    0.05251569432900   -2.81973805521554
H           1.15048918375005    0.21164767300061   -2.41128039331752
H          -0.19851346621292    0.90895754265275   -2.69260369995171
N          -1.10450522701815   -1.26777219500173   -1.07612355564944
H          -0.59034001143054   -1.98067273102193   -0.53796893295060
H          -0.49971323989810   -0.83548572983132   -1.87426929395461
H          -1.98193291208548   -1.63357825800323   -1.42834922556218
