    26
        -50.46245705  Gyration_radius:  2.47575247615 Dipole_moment: 6.404
 S           0.99381467382551   -0.62284485437922   -1.35476674452111
O           0.49004870327020   -1.59345414796046   -2.28198145397378
O           0.93294067555786   -1.09756757064732    0.03708835784362
O           0.28146677533536    0.66938480256848   -1.43577144398197
O           2.48214718703057   -0.34239750340201   -1.68395961628718
H           2.67264754082656    0.50877467486675   -1.21956632937531
H          -1.03532645134167    0.72015765301801   -0.75745269510295
O           2.37249204244262    1.90689185895233   -0.36231922777728
H           1.50019629959469    1.85162691887904   -0.78723028911590
H           2.23244153435570    1.62785906763916    0.55866317940261
O          -1.78621876210893   -2.87647808929411   -1.84646015571588
H          -0.89846538719627   -2.52114198757135   -2.06908692185425
H          -2.35715531340048   -2.63351769510403   -2.57706272804801
O           1.54598737109970    0.57716862562043    1.89847502815871
H           1.30734147597988   -0.10310437679504    1.21113466572382
H           2.10993667073619    0.12404385527995    2.52707924489824
O          -1.58716862241370   -1.70944264227613    0.52029976204994
H          -0.60649046712413   -1.65711165745137    0.47642100508528
H          -1.83213576984999   -2.26868929259131   -0.25223815378706
O          -1.85719545781655    0.67612948189227   -0.13561507330889
H          -1.87745859303271   -0.34502358539213    0.16415546172860
H          -1.55909054911439    1.21550132653190    0.73782835857228
N          -1.00414411791343    1.87206399142377    1.94555344321278
H          -0.90019200969752    2.87327973758832    1.84329787300553
H          -0.07510279079205    1.46161659849056    2.06353256786127
H          -1.54531664825006    1.68627478011083    2.77998187531084
