    26
        -50.47327814  Gyration_radius:  2.37196637184 Dipole_moment: 7.413
 S          -0.26908416317602   -1.30129737078978   -0.70173381234910
O           0.88686292360338   -1.52989437332888   -1.55347181767562
O          -0.71622351469118    0.10395727766612   -0.81494216709386
O           0.01453449501197   -1.61938392006367    0.69073256518048
O          -1.41727685781925   -2.18770479297418   -1.21073208814466
H          -2.23951827361166   -1.76918150223217   -0.81353355067073
H           1.21891920325579   -0.72080501763246    1.51449983529566
O           1.77907610573044    0.05942409654630    1.71822086933643
H           1.12954632270282    0.77937691157850    1.82412569547754
H           2.43331623951688    0.20657826613404    0.31963799453487
O           0.90356567334101    1.89287623352323   -1.86500691945969
H           0.23344333989613    1.25274548960958   -1.52442262063542
H           0.78535044474058    1.91198454861398   -2.81585281477383
O          -3.26243318756441   -0.77112625978181   -0.13395349465921
H          -2.88418501975722    0.02878767778333   -0.51408042428695
H          -2.98317793186995   -0.76579280202476    0.81543867152550
O          -1.96941732239171   -0.62827186777220    2.17123353943160
H          -1.63020212646545    0.26685405743491    2.28676245170461
H          -1.23068823368773   -1.13185416309998    1.77562612283179
O          -0.39659106920354    1.64071726660751    1.31102671020701
H          -0.34295181734417    2.53498916000851    0.96996050742391
H          -0.56352568597472    1.06196472181268    0.53193906300738
N           2.63282407025708    0.18909534722817   -0.73774553101567
H           2.22225241195195    1.03870516046165   -1.18177550240049
H           2.04627437496913   -0.62102785769476   -1.11828018918439
H           3.61930956847789    0.07828370237893   -0.94367310356979
