    26
        -50.46294852  Gyration_radius:  2.43418967032 Dipole_moment: 6.326
 S           0.67607514357557   -1.10661571675322   -0.59695805861838
O          -0.48987354944874   -1.73912389148882   -0.00159992069157
O           0.81119242174185    0.28400953235945   -0.13245802299759
O           0.48683748853988   -1.09744944779731   -2.12319214219041
O           1.90608607339296   -1.83284882165515   -0.27142934460300
H           2.17843720278945   -1.36284398657713    1.06422023657475
H           0.67297174718199   -0.15600828344650   -2.45744954589824
O          -0.95704039369095    1.34787680890425    1.48328304654680
H          -0.99702022461959    2.29387405951941    1.33553250850692
H          -0.28686951343560    0.99429491146421    0.84953712440415
O          -1.81534369467735    1.70675889244779   -2.48311748744236
H          -2.28664359256753    1.41219646357465   -3.26364055799640
H          -2.08186717105180    1.08845580379778   -1.76047008019847
O          -2.43646476387200    0.02604312875685   -0.50839356112116
H          -1.83450066450377   -0.73888070101432   -0.44723980455165
H          -2.27435660618152    0.52882512613326    0.30304717798464
O          -0.34804448623310   -1.11577143158166    2.55230407209206
H          -0.53615215830016   -1.51350667753752    1.67025438975271
H          -0.74116158943452   -0.23064443327441    2.50427078585655
O           0.82430218300882    1.37617314138763   -2.57011163207246
H           1.01328256631849    1.39705829216660   -1.61948927055471
H          -0.12550957910698    1.63382409458294   -2.64558322453698
N           2.19447214623953   -0.90464265626975    2.06923479146649
H           1.16418121942019   -0.98245715351608    2.40468923516518
H           2.44395127389573    0.07341390943222    1.95357245557311
H           2.83905853118775   -1.38201092366377    2.69118683955815
