    26
        -50.46097106  Gyration_radius:  2.4756668345 Dipole_moment: 6.329
 S           0.57377748724381   -1.72295721092060    0.18980654197318
O           0.80620858567796   -2.02976580027994   -1.19485575714801
O          -0.80470879439255   -1.29037867801225    0.43196368202701
O           1.50075465304546   -0.71090293520336    0.71782414355033
O           0.79648695897937   -3.02730918544523    1.01879284552227
H           0.72714609016138   -2.69752982902433    1.93283841902215
H           1.75787567703963    0.56816689018128   -0.25636702978408
O           1.00768594323867   -1.45341139275974    3.15584577354987
H           1.23215502468170   -0.96471593646594    2.33429828507936
H           1.83129065485667   -1.57315091403015    3.63377773082973
O          -2.10554237420380   -0.41270786580184   -1.68432507501425
H          -1.61357629361440   -0.84426866197756   -0.94595935916565
H          -2.47576411732117   -1.13005156353387   -2.20078675476424
O           0.38709885950146    0.10227513519427   -2.73433658336838
H           0.66510759446295   -0.76412224018933   -2.37442286064140
H          -0.56673006957472    0.13268263497551   -2.54505790166156
O          -2.02527182723390    0.99991817263543    0.80012583347439
H          -2.54420596934698    0.86244958982755   -0.00220806235176
H          -1.54859446789366    0.14450025822141    0.90612395410459
O           1.68008086529773    1.35336661595535   -0.85407612311639
H           1.27262415693137    0.98083797455410   -1.68644136639471
H           0.70395592586025    2.13076268579405   -0.24288069486652
N          -0.12245013605111    2.72446652289711    0.27978868360000
H          -0.45974144681629    3.46273036649269   -0.32884969735235
H           0.24115469228600    3.12028179089553    1.14022966752687
H          -0.91681769282587    2.03883357603508    0.50915169536909
