    26
        -50.46058495  Gyration_radius:  2.47490742313 Dipole_moment: 3.440
 S          -0.87312557060131   -1.01493094113917    0.33260786208604
O          -1.82490767353760   -1.39679263907038    1.33674541446616
O           0.38469634306802   -0.50464941617826    0.90308907774189
O          -1.47474829828919    0.21474176384522   -0.47149066812059
O          -0.61535751876559   -2.02425860973642   -0.68005715570394
H           0.37957793154961   -1.75155915056682   -1.72355490169724
H          -1.48094514834552    0.90055084536526    0.24649338443231
O          -3.07485309203907    0.32546704930433    2.91043587335921
H          -2.65939238084844   -0.42989401136562    2.44027873417916
H          -4.01053602263322    0.27984574965591    2.70811139547688
O          -1.12367173875510    1.62921552873239    1.65546053970040
H          -0.45258952040340    0.96551354141444    1.87152915405621
H          -1.89154459183053    1.40102001868014    2.22233582671659
O           1.13945047495968   -1.38900665112984   -2.33028040507877
H           0.81562983967669   -0.44734654857381   -2.58108191409685
H           1.95369306225848   -1.24385330078672   -1.59652943404044
O           1.28217207481046    1.73132981554735   -0.22581910554171
H           0.80406744416787    2.44138596559043    0.20940485449002
H           0.98589977670946    0.90891156000895    0.22202534994939
O           0.20734720787180    0.96824813114786   -2.54821718385708
H           0.71228367559312    1.41246144166540   -1.82994560842601
H          -0.66230156262225    0.79716003915550   -2.15848001711782
N           2.76963516525482   -1.00157682281703   -0.46093451311469
H           3.22019001697242   -0.09504355724628   -0.49194511192688
H           3.44993711433890   -1.70903058487262   -0.21840848507115
H           2.03939299145093   -0.96790923661644    0.25822706713835
