    26
        -50.44730892  Gyration_radius:  2.51463107626 Dipole_moment: 4.195
 S           0.10782802176319   -2.32505032060026   -0.85939762577630
O          -0.36382735694069   -3.31745980381949   -1.74823066059292
O          -0.21612200361897   -0.95187757634624   -1.20853712211076
O           1.63753573817045   -2.42658037586460   -0.69967885460192
O          -0.46420297783776   -2.58935393425757    0.55130676919886
H           0.10311025565741   -2.04956218677597    1.20194268141238
H           2.04749988775322   -1.56196073849820   -0.39464345105169
O           0.96555214145932   -1.16611473181896    2.05938864763992
H           0.95631387083574   -1.37038036814417    2.99588504366705
H           0.59561081958709   -0.23640103068939    1.96117450819041
O           0.77423117936597    1.52612199857909   -0.89108304708893
H           0.02804658576022    2.15335139599088   -1.02780582477636
H           0.40954117693219    0.66865814566730   -1.17582738914501
O           2.78533157607145   -0.16194938225542   -0.16080301327954
H           3.49332636064558   -0.07758635466603   -0.80255699673374
H           2.16361458232262    0.56790499578216   -0.33353134174284
O          -2.23349668422217   -0.04131904017065    0.26584444009306
H          -2.65810714089112   -0.82082923196306    0.62832547171887
H          -1.55730783845588   -0.37692400515745   -0.35991069636378
O          -0.16410182766809    1.12333484115184    1.64559636113657
H          -1.02960447677311    0.82192675639194    1.31332827159401
H           0.30343428478027    1.43771859117756    0.84693260681906
N          -1.65198327268269    2.74691424914629   -0.97522392575216
H          -2.05600172977609    2.98920824362747   -1.87101483342678
H          -1.83364883114469    3.50949066005354   -0.33454362216272
H          -2.14257232110361    1.92871920348906   -0.62693638682831
