    26
        -50.45021307  Gyration_radius:  2.49994674629 Dipole_moment: 2.154
 S           0.30924886653441    0.32521301739908    1.45081117372706
O           1.42291573326883    1.01071158400261    0.83549265539488
O           0.13296872070374   -1.02112139808099    0.93938516239692
O          -0.95091826273550    1.09079633094838    1.29616029242627
O           0.59666080307954    0.24347737322992    2.97763482233262
H          -0.25896692558845   -0.05395179327918    3.34840464682538
H          -1.30882768616148    1.55643182283698   -0.04402891948986
O           0.28147991581151   -1.22636557015817   -1.66382689636427
H           1.15089170203532   -1.65594370489905   -1.71732678503103
H           0.12015136396774   -1.21252458227012   -0.68775300388532
O          -1.42782250867855    1.78752361318482   -1.05280772610800
H          -0.39003615660280    1.72778741926683   -1.41710528031163
H          -1.88553469235989    0.99507721790897   -1.48286859280478
O          -2.21177992675293   -0.36691014128042   -2.25512012992395
H          -2.34007280041711   -0.32478964181881   -3.20465772477575
H          -1.40030426317685   -0.88678349426181   -2.10157839171982
O          -1.98118970855844   -0.09856297916458    3.40926232134117
H          -1.88968654110695    0.33215842259419    2.53757499163000
H          -2.39961206219186    0.54148870322353    3.98979388401677
O           0.91705493389094    1.35002281106948   -1.68405416557824
H           0.80392849433656    0.38701570771693   -1.88078274805212
H           1.28712154539030    1.35604774163602   -0.76499885549512
N           2.73687197715159   -1.53534041493432   -0.45821856734414
H           3.18722441819785   -0.62701586582576   -0.48253040480591
H           3.44149177820481   -2.21012359906350   -0.18420506463470
H           2.05674127174035   -1.48431859000885    0.29734331625971
