    26
        -50.45357086  Gyration_radius:  2.58107438734 Dipole_moment: 1.471
 S           1.06769874412127   -0.23278322977763    0.40577604737928
O           0.62062070741541   -0.02734061534385    1.76470768590790
O           1.67667894045318    0.92670243445537   -0.18805957578937
O          -0.10147498364017   -0.71008569257348   -0.44894516810003
O           2.05696950245707   -1.39146827256912    0.34609457144085
H           1.63031875781787   -2.21757157114362    0.77527132469115
H          -0.87772126400919    0.04019205072902   -0.49914399067130
O           0.93510169774627   -3.33042978478660    1.53973760867719
H           0.00367882794161   -2.97512777605345    1.66927495501057
H           1.33536162230360   -3.36401557355932    2.41171874935286
O          -1.78688353147298    1.09302408753503   -0.52066998347468
H          -1.39896229013718    1.72964030754875    0.12654902744406
H          -1.65048638973895    1.49778762540380   -1.41723155620678
O          -1.14061089473257    1.99096637984807   -2.91520568618405
H          -1.52724643807124    1.46443123878684   -3.61674642095382
H          -0.17884237169457    1.78198230654599   -2.91877342614683
O          -0.25781972342916    2.44632626192865    1.18021042308044
H           0.01971701210464    1.65159784883995    1.66687161283353
H           0.50918457966315    2.68324460540817    0.64974480377797
O           1.44730697757439    1.31767052794500   -2.80499839482375
H           2.12714181805093    1.95955122097381   -3.01831548953121
H           1.56854668192917    1.10178526692216   -1.85746816492251
N          -1.35140947609786   -2.07269959386915    1.91430371499956
H          -0.84406730143942   -1.20069289482683    2.05415727427416
H          -2.02736059130913   -2.17595404189530    2.66050886244949
H          -1.85544061383659   -1.98673310646782    1.04063120547816
