    26
        -50.46062584  Gyration_radius:  2.46674822173 Dipole_moment: 1.852
 S           0.08337979564653   -1.35067804265744    0.29655486121947
O           1.00348876764690   -0.42543216541912    0.94137615297495
O          -0.02101447734425   -1.08450924679265   -1.13367406785676
O          -1.23683366828572   -1.29646985141928    0.93884306404995
O           0.62640177334727   -2.79184891830240    0.45137455081413
H           0.68070476881592   -2.88151983327635    1.44364842138795
H          -1.91556442542822   -0.02453365306341    0.77072461046683
O           0.48513331669713    2.46443638486264   -1.81560797947670
H           1.09272750053199    1.70316480881762   -2.00017786481694
H           0.92733347189319    3.25322336612506   -2.13188403265608
O           1.90736253493909    0.29190731703242   -2.27216654982635
H           1.96652086762196   -0.09312260681501   -3.14873253311361
H           1.30029758056156   -0.29391253541229   -1.76522682225093
O          -1.72371702492637    0.79103468900054   -1.94551246485326
H          -1.08838472188675    1.51193152013561   -2.08936463738804
H          -1.17477562715249   -0.01243460991717   -1.81177346056565
O          -2.20528043141462    0.95473020945949    0.52456231672281
H          -1.33291489739030    1.51453884603543    0.75996240645099
H          -2.20142186425601    0.94246864078757   -0.51549108213205
O           0.03935040850769    2.00267362004100    0.83977786493420
H           0.52646655851986    1.15050658252459    0.96237160298143
H           0.26173425369080    2.30023024676661   -0.06502345710746
N           0.55388588962157   -2.33770776969037    3.00565517877912
H          -0.44456509694175   -2.19437962246878    3.09590567463176
H           0.96633061973131   -1.44008572321167    2.77060907216056
H           0.92335412724506   -2.65421164316732    3.89326918449212
