    26
        -50.44031581  Gyration_radius:  2.51473291889 Dipole_moment: 4.392
 S          -0.59157876073345    1.48905161172109   -0.53561285228601
O          -1.52163424938967    1.86278947513197   -1.56464823946484
O           0.78653394499051    1.72135386518210   -0.84241708027200
O          -0.81401224411877   -0.03184788744459   -0.22314629234078
O          -0.92548145694422    2.14216679583401    0.79141031441241
H          -1.59558798185555    1.57042355755385    1.34548238103722
H          -1.00226730587478   -0.49840334872224   -1.06084087416588
O          -0.30631187159501   -0.65981841979449    2.91977895370335
H           0.07474463566083   -0.50701939218488    3.78636995427892
H           0.38674253032498   -0.35510703542793    2.27252632108680
O          -1.49669590009449   -0.45982519880228   -2.76139855589666
H          -2.33941355154421   -0.80728865906549   -3.06209811690578
H          -1.62666911382867    0.49618145889380   -2.58909597209195
O           1.37982415974306   -0.38169320098441   -2.54995719335866
H           1.34959981667828    0.45496904465127   -2.06327356009299
H           0.50286707666916   -0.51464003177428   -2.92349530262297
O          -2.39160708856699    0.72850613600957    2.24175488111023
H          -1.66452497308790    0.08388844221869    2.49126225713301
H          -2.59521143753796    1.23395650290287    3.03294121398752
O           1.61375004294827    0.23149183690452    1.37007814581048
H           1.41750420523707    0.89222977490496    0.69550481981955
H           1.92839782082691   -0.56086700281064    0.86461201158796
N           2.31431768555982   -1.85791536222622   -0.20329049303439
H           2.06434303736172   -1.44823210173988   -1.10303451966690
H           1.76344800181232   -2.69791875298720   -0.08124723244871
H           3.28892298737394   -2.12643208794772   -0.24816496932895
