    26
        -50.45869859  Gyration_radius:  2.452057482 Dipole_moment: 8.076
 S          -0.47896019020994   -0.99188546362869    1.19175728381692
O           0.33869051657167   -2.01283522463979    1.76676088045026
O          -0.62970975859320   -1.12096843329642   -0.26480606066761
O          -0.04820503997293    0.37323836822580    1.51695532143747
O          -1.92983905153203   -1.14512594459255    1.77897345803966
H          -2.41501910476974   -0.40468759823124    1.39546405885681
H           1.40034762532793    0.96557007447166    0.78600586243142
O           2.70037174883685   -1.49715913343680    0.50848618977415
H           2.03725948118393   -1.68699319364369    1.19266753701807
H           2.43496652576985   -2.07435128364255   -0.23081332616497
O           1.07016215892124   -3.13666263696148   -0.93776826722626
H           0.96961745934848   -3.78372608065405   -0.23598279762077
H           0.36613280951830   -2.48334409967579   -0.78690480378927
O           2.09574943353081    1.00830391008328    0.09695447740866
H           1.27500369755542    0.83845766148125   -1.04773950495191
H           2.55738491162779    0.13274254186001    0.19627853224548
O           0.48635967563683    0.59365385067107   -1.74019351286823
H           0.01078640452752   -0.16385854121881   -1.25045809209471
H          -0.20395038959525    1.39363411853781   -1.72632753077282
O          -2.28209647057314    1.48763466644472    0.95777359017822
H          -2.58462155523702    2.00940802145171    1.70409238102180
H          -1.36773655132045    1.18041501620870    1.18906656132790
N          -1.25542401081852    2.45797973043227   -1.56653656005715
H          -1.90170440147782    2.49427148971096   -2.34397580760420
H          -0.87367891118862    3.38364715019188   -1.42039371346176
H          -1.77188699306907    2.18264102384138   -0.72933614672437
