    26
        -50.46525756  Gyration_radius:  2.40654295821 Dipole_moment: 8.945
 S          -1.66840374728819   -0.18584865216788   -0.96294706122761
O          -1.06916863983305   -1.09124617966210    0.03374851330953
O          -2.25834184477442   -0.88607058069368   -2.06165958732609
O          -0.45355539942961    0.67285984416050   -1.51637102176056
O          -2.50943102022111    0.79604701500343   -0.28462682157762
H          -1.66880105353517    1.45198451258378    0.71575006941063
H          -0.09997806468035    0.08563302403889   -2.25757308746454
O           2.24300555056772   -0.25700241096592    1.05051864303539
H           1.44496980891220   -0.43958898425936    1.58634558532715
H           3.00376963348796   -0.41398862245083    1.61151223152648
O          -0.14409199692287   -0.60023563270995    2.34730722750311
H          -0.37992924768746   -1.33486859633506    2.91577825649433
H          -0.54205279779342   -0.82025402854223    1.44902485353812
O           1.18046137805896   -2.15423412955466   -0.89966656549092
H           1.80005105430724   -1.56047075191606   -0.45843306140372
H           0.30519237576510   -1.92023256594493   -0.53092850807256
O           1.24842440551683    2.09834363643283    0.04985162027903
H           0.80243802556973    1.78029389884807   -0.75266113209426
H           1.77919281613522    1.33920611363749    0.35447991841446
O           0.19270373483296   -1.13231620623329   -3.17712943521017
H           0.67730865725642   -1.69045178983715   -2.53049965315069
H          -0.74071179615944   -1.39364825143978   -3.12354792446598
N          -0.96617356612880    1.84500439343565    1.45701470271540
H          -1.35865006958873    2.64756280972820    1.93675893105827
H          -0.06530195176945    2.09024307408699    0.94073816322404
H          -0.75292623458270    1.07327905069010    2.10721515329810
