    26
        -50.46698258  Gyration_radius:  2.56854558684 Dipole_moment: 4.213
 S           1.06605895373874    0.23434343705696    0.82837473296114
O           0.64022210089781    0.32235105987064   -0.58744767987568
O           2.45284102898231    0.54944324831745    1.00239796334604
O           0.83137242697893   -1.27823070840331    1.20771584630766
O           0.13837129299598    0.97482269426909    1.66763256271999
H          -1.22523336772005    0.37434508859287    1.49136824017529
H           1.72243947696768   -1.71138853955928    1.05884840308279
O          -1.19431933026046   -1.55839572934532   -0.76404980324120
H          -0.74983781077842   -2.34931780182634   -0.45000722605733
H          -0.48475798114213   -0.88006892282411   -0.83920287691547
O          -3.21237188925418    2.10289891837501    0.01803852384215
H          -2.51345485800344    2.10549934208756   -0.68124512622747
H          -3.07588336897814    2.90970391473083    0.51825883794688
O          -1.16368309044040    1.96394345682614   -1.65945761462523
H          -1.31043058989434    1.52154078329139   -2.49780414551053
H          -0.44889247716139    1.46113656423825   -1.21621803258452
O           3.23575629075148   -1.98019297635716    0.66243604923449
H           3.46903052601946   -1.10958148517097    1.02021070123881
H           3.18906217550567   -1.83116465529411   -0.30551593154667
O           2.76358897165090   -0.82258570026206   -1.71894309052407
H           3.42910719931183   -0.13714082234436   -1.80621801351545
H           1.96631770518542   -0.36866640196200   -1.38068100302170
N          -2.17644307193331   -0.04029346102569    1.20150617419885
H          -1.96709291028617   -0.74363638910657    0.44821141896972
H          -2.73385184767765    0.75626815248307    0.79011444467497
H          -2.64791557485146   -0.46563306659384    1.99167665417925
