    26
        -50.46041386  Gyration_radius:  2.44147593035 Dipole_moment: 7.921
 S           0.35192878657146    0.62013679130846   -0.48029713966809
O          -0.47585531315903    1.23953728221453   -1.51294005097785
O           1.47477530614717   -0.12838484389580   -0.99563387027382
O           0.74723091433825    1.60993723711173    0.53083122608813
O          -0.61782517613278   -0.36331945948295    0.24927592085425
O           1.66849724488919   -2.85285747426753   -0.80035317830434
H           0.96544465308971   -3.06648969649402   -1.42268051198485
H           1.85596946374420   -1.91437833978434   -0.96684827964718
O          -2.86768377233035    0.74704457438399    1.24896479661008
H          -3.63269826094319    0.24144777204166    0.96911258983830
H          -2.08271449966477    0.22502523406443    0.98505736398926
O          -0.27702928766834   -1.50940075601360   -2.60239010613573
H          -0.96863842080791   -0.91310543924395   -2.89291003346770
H           0.37205183845822   -0.94113861644456   -2.16543837696103
O           2.54301008308857   -0.04066237319312    1.66249258584451
H           1.94515469613555    0.67099495969640    1.36746401485354
H           3.10235774946714   -0.22468058282872    0.90305531204303
O           0.73606216663182   -2.00104202949778    1.53521941060118
H           1.46664072085831   -1.39636229422358    1.80237368106527
H          -0.08782374811358   -1.08671421257142    0.82615112748958
H           1.09583313812296   -2.53499515615162    0.78551561670261
N          -1.50227387104010    2.77828191170461    0.20756650648194
H          -0.56934496605867    2.57983275671151    0.66287097335208
H          -2.23225021799496    2.21387075019739    0.69613573060017
H          -1.72652708598288    3.76417921426355    0.13166386265940
H          -1.28429215162819    2.28324279041479   -0.72425917165880
