    26
        -50.46680134  Gyration_radius:  2.60687665647 Dipole_moment: 4.778
 S          -0.19903134814197    1.60981903920276    0.01791411424497
O           0.52247106054791    0.84884992316913   -0.98234256600786
O           0.39617826358883    1.49580776142238    1.33564306861104
O          -1.61973317004222    1.20539518747875    0.06390742399086
O          -0.16459438294589    3.10328898526528   -0.42472759105318
H          -0.82446702976684    3.53450079859359    0.15417962763360
H          -1.59650580126457   -0.36566898610494    0.17383654536496
O           2.53238462088753   -0.66424732356911    0.01724716225678
H           2.13692344575291   -0.88097629634216    0.87091568238125
H           1.93591806950055    0.00081254243585   -0.37512614422160
O           2.12381860130618   -2.71551465540188   -1.60509708430692
H           2.79180811869727   -2.69906931059307   -2.29163087763278
H           2.37741345761071   -2.00770403548257   -0.96095350467323
O          -0.19288964051724   -1.50963889167359   -2.08992806638068
H           0.62967242448017   -2.05103989531405   -2.01226554588737
H           0.09313595496781   -0.58468564641067   -1.96820640209991
O           0.59071278655577   -0.95224910911317    2.08543221070339
H           0.63700247641528   -0.99093635696673    3.04196320319359
H           0.54447806525784    0.01805937729870    1.85276638242817
O          -2.35332995101817    3.55163620904326    0.99666525604633
H          -3.08125053597737    3.90130681219331    0.47754195532046
H          -2.30066549381165    2.59584680716686    0.79513771079396
N          -1.33386638876964   -1.39150730682526    0.21813051879446
H          -2.13957004686492   -1.97879216077169    0.40323827944584
H          -0.61622199402591   -1.47723110957508    0.96407227744264
H          -0.88979158244385   -1.59606236911306   -0.75831364632018
