    26
        -50.47155361  Gyration_radius:  2.4997309333 Dipole_moment: 5.042
 S           0.65967221782795   -1.61654844531427    0.13096147723739
O          -0.69178333427356   -1.11383823116962    0.43114302399610
O           1.36662103357068   -1.99042998059629    1.32426727970210
O           1.37109746084695   -0.60455886299475   -0.66782124302034
O           0.49491363490896   -2.87878257826322   -0.75707305645145
H           0.31085915292856   -2.51723370168713   -1.65960415574467
H           1.06231570301802    0.84691446973874   -0.20644410693952
O          -1.99988786484096   -0.21262757394524   -1.58034915993910
H          -2.88276010725817   -0.58201343700259   -1.52727164837407
H          -1.51063359949229   -0.55879285569454   -0.77885909673214
O           0.12582623190415   -1.40748831755395   -2.87587081165182
H          -0.72223986782283   -0.96481559013721   -2.70802857518371
H           0.78624383218635   -0.89357493622772   -2.38190783621899
O           1.76807529556423   -0.13369366451438    3.14200587144554
H           1.71487954700557   -0.83857922112750    2.45589121350010
H           1.94031326565296   -0.59151608773751    3.96647150270889
O          -1.35973476457977    2.40497633734538   -1.45392672060434
H          -1.62425905392005    1.47535532740519   -1.62037341937310
H          -2.10408882728619    2.82364289640505   -1.01798818091890
O          -0.54467628530750    0.84009418521314    2.24427649755505
H          -0.77936165720519    0.04662460392985    1.72102280483746
H           0.22329896212657    0.55961939582026    2.78679096562192
N           0.70807862580854    1.78003514075852    0.16082551321955
H           0.20154228678851    1.54799049825364    1.08144904812930
H           0.00624888975681    2.15765272012525   -0.51558649446704
H           1.47943921207283    2.42158793893153    0.30599930765068
