    26
        -50.44772138  Gyration_radius:  2.54213568674 Dipole_moment: 1.972
 S          -0.90194759408510    0.29998801846490    1.02044890060233
O          -0.64262396831653    1.35009777961329    0.09295998748638
O          -0.02609051864132   -0.84797753358413    0.93212856662823
O          -2.35091490558229   -0.17968936133738    0.89610918161899
O          -0.83673735614954    0.85510082694403    2.46061393185794
H          -1.00180397237897    0.06458683210627    3.03514178871220
H          -2.61902695891342   -0.07371742153233   -0.12953908282732
O           1.52368604089966   -0.58588933772976   -2.74757792068401
H           1.95331020839829   -0.45356758512839   -1.86456892441441
H           2.08372994636441   -1.20119153392538   -3.22335686782586
O          -2.61949278162175    0.10623045967257   -1.54770448797036
H          -1.95499687294724   -0.61671157609061   -1.77043935408522
H          -2.14193978224427    0.93669305293457   -1.65294191397999
O          -0.68876590492001   -1.59785849401935   -1.66976409179720
H          -0.39291422884971   -1.55161844589538   -0.75087434686716
H           0.06508492258225   -1.23834662506888   -2.19675209418726
O          -1.28008689667852   -1.58565083878193    3.22178310870997
H          -2.16812363653790   -1.78579910681149    2.91225404745931
H          -0.67969502788848   -1.78727515276453    2.48834538936652
O           2.47625820495289   -0.34844114963748   -0.28142228778026
H           1.70636598225592   -0.63667578075325    0.22618523642538
H           2.53676714637247    0.61936602117360   -0.12523946064444
N           2.13079941653484    2.32970161251487    0.14747494631869
H           1.12807540922922    2.16901176790749    0.08995992125968
H           2.38195182199877    2.97214601663163   -0.59357084035412
H           2.31913129619299    2.78748755513839    1.03034666698401
