    26
        -50.46303520  Gyration_radius:  2.45374961814 Dipole_moment: 6.481
 S           0.81091999297719   -0.16981228194524   -0.71630415413840
O           1.91012907834338    0.72861357071207   -0.44506736661693
O           0.21341325840704    0.02457213131209   -2.02715865300866
O          -0.31148113640987    0.11825100065772    0.34977225406256
O           1.14344867450525   -1.57466733310703   -0.46006432575662
H           0.13467152142867   -2.14639097097909    0.40049487342533
H          -0.77476662132842    1.00564094648757    0.13253956200175
O           2.44057256912364   -0.48532128347019    1.82574860371613
H           2.76727382123225   -1.31424370762809    1.46829058780151
H           2.30022971624381    0.08081347506572    1.03518708094629
O          -2.39962119772388    0.43653148651560   -2.18533750864815
H          -2.58232408368733    0.69552388432835   -3.09031705657603
H          -1.45320291972456    0.17580901022630   -2.17016145669440
O           0.61522230117313    2.66658560718545   -1.93824387250331
H           1.39911993247387    2.62513401386150   -1.37990025496375
H           0.50506135825271    1.74595408705468   -2.23849808361439
O           0.10012081515826   -0.77782955514573    3.00901742902751
H          -0.33999234327373    0.03628077808266    2.74653797187897
H           1.03716435668562   -0.66033657712491    2.70124214626840
O          -1.49367874836843    2.24036992422358   -0.36096845551523
H          -2.08532158019188    1.77399963916461   -0.98286420455772
H          -0.78869279552192    2.64080768320532   -0.92088422790603
N          -0.62853245975112   -2.43945386304778    1.13657242707570
H          -0.39786708489015   -1.81490008717908    1.99069355263233
H          -0.58394875377809   -3.42933787031847    1.35586513894139
H          -1.53791765085364   -2.18259369857295    0.76380798262999
