    26
        -50.46471123  Gyration_radius:  2.39770418231 Dipole_moment: 5.033
 S           0.84024089574694   -0.98646052227442    0.59429744947269
O           1.95867463203892   -1.38580917487839   -0.21298185519652
O          -0.43909417568635   -1.52223936265376    0.13178598528521
O           0.68543101865087    0.59129601200737    0.45012924954322
O           1.01314545468548   -1.19563527120037    2.02920716306372
H           0.05306884638851   -0.29154994313680    2.62499047723304
H           1.46174866334860    0.91146412206785   -0.11673481731228
O           1.66262445846339   -0.48618165730133   -2.72907528164881
H           1.83143999464484   -1.05866272741908   -1.95769199931456
H           0.69587571535333   -0.42482028952366   -2.79359340447074
O           2.61753590173830    1.29364219463370   -1.05566623245701
H           3.36586710410334    0.78841559692153   -0.72663994144062
H           2.31058523133686    0.79409047465270   -1.85848736438382
O          -1.06160241435108   -0.61342241765278   -2.23629757981169
H          -0.82484807396194   -1.01091413963500   -1.36200574968579
H          -1.58574350267340   -1.27105103114284   -2.69613184265737
O          -1.70341576109541    1.57311340357372   -0.65473518184772
H          -0.80378904051461    1.53501003009417   -0.30064229674886
H          -1.67213961970913    1.01023172527082   -1.44422443515128
O          -2.47178996471545   -0.20414176359108    1.16155339487296
H          -2.43659537192082    0.53422747382033    0.50618039421320
H          -1.86673169560150   -0.87888597944864    0.77955726333959
N          -0.72073229947897    0.42423713979571    2.93250774242621
H          -1.56664430275528    0.21308402127241    2.26200162879036
H          -0.37327500938410    1.36389573219683    2.76456365775445
H          -0.96983668468649    0.29706634349576    3.90813358607608
