    26
        -50.45219480  Gyration_radius:  2.45364634893 Dipole_moment: 4.328
 S           0.15433221905257    0.09936239038764    1.69511352758379
O           0.68197383579504    0.81222082457012    2.80638399669771
O           0.72918867370260    0.53137563781534    0.41988378173060
O          -1.36780956313871    0.20372261253917    1.60382904617598
O           0.39537117183529   -1.39750149973285    1.84418750284542
H          -0.26300140278464   -1.87872717885196    1.21040294526647
H          -1.69668027483848    1.05575763669577    1.11494341761901
O          -1.17582127568505   -2.54336677965422    0.25270025440613
H          -0.96706203083912   -2.24861661725818   -0.68779233885527
H          -1.07795149417652   -3.49774298509090    0.26662527382649
O          -0.43607726969614   -1.75137194877628   -2.09774395775258
H          -0.70998438345586   -0.82419050283404   -2.16769029347836
H           0.52950684775529   -1.73273663554955   -1.90231656121465
O          -0.64438538958577    1.04228212401223   -1.77773257808653
H          -0.09659182362885    1.57956003853393   -2.35310073785818
H          -0.09403547835770    0.82196605117118   -0.99447181494486
O          -1.95593612502491    2.28316007597332    0.31448517846369
H          -1.19293542740657    2.83822242597395    0.58727126776309
H          -1.76064812154974    1.96796653396950   -0.58601831480910
O           0.44463573345824    3.12032697180360    1.16683714220572
H           0.54494653794493    3.06975919845799    2.12182117062625
H           0.81094633731339    2.28445839790878    0.83994953210242
N           2.08502782934665   -1.53287685900473   -1.09507381129724
H           1.79381307136648   -0.77249995828497   -0.48367571803193
H           2.90771456471839   -1.22738786324503   -1.59983813388417
H           2.36146325780164   -2.30312210202285   -0.49897978697836
