    26
        -50.45257874  Gyration_radius:  2.436069424 Dipole_moment: 4.326
 S          -0.15047199155336    0.99043321549550   -1.43506704740256
O           0.11306868642322    2.38483796888109   -1.30633736810347
O          -1.29445494344675    0.51424269527164   -0.68237274049765
O           1.10039957548968    0.19457528515677   -0.93705696088051
O          -0.27800377032457    0.56553620516205   -2.87789611643708
H          -0.65556602127205   -0.42269871563292   -2.89150603907742
H           1.48216008098778    0.73257575034715   -0.17486016074615
O          -0.84569441288956    2.10953063587290    1.41692431413563
H          -1.09217534396855    2.98344004579050    1.10435918695150
H          -1.15863019085652    1.49224738034694    0.72706895791389
O           1.76422935295530    1.82546374820490    0.91734228684556
H           1.95799102450649    2.58516724157429    0.36036302184654
H           0.84433485139052    1.97125101474308    1.24613552862712
O          -0.92519091388141   -1.79812016595593    0.75201442998832
H          -1.21093890015013   -1.00185512011696    0.27914600540137
H          -0.44181473435420   -1.45823024390598    1.53610110846133
O          -1.15368681809348   -1.75533075665323   -2.69748309780627
H          -0.41438156631574   -2.22838036184428   -2.20227452498189
H          -1.88445192016919   -1.68781892145577   -2.07511309424426
O           0.71598672081619   -2.63672810607323   -1.13706471436112
H           0.14823025140224   -2.51379678918314   -0.33551513069233
H           1.31340852692936   -1.88213951907687   -1.13784314925793
N           0.41116145758195   -0.42936259435657    2.71875195139449
H          -0.17258343226597    0.39854543417097    2.76007817860136
H           1.33151905544738   -0.13546603932004    2.41448201167067
H           0.49555538561777   -0.79791928741255    3.65762316267943
