    26
        -50.44799678  Gyration_radius:  2.70605852048 Dipole_moment: 5.800
 S           0.31748045079492   -1.18550306990576   -0.39732331981351
O           0.71566988455307   -1.81299811568099    0.81876004576109
O           1.00173565884775    0.05147758435070   -0.69844515878901
O          -1.20734135752864   -0.91472578659001   -0.40316389234482
O           0.47321704877715   -2.16254780331488   -1.55856321720439
H           0.15480871762314   -1.71150677366230   -2.41410482564379
H          -1.45486543947303   -0.23406685350216    0.29172770833000
O           0.82774832749837    1.60986507357644    1.51511284726675
H           1.05749491414978    1.12878397600169    0.70267659473362
H          -0.13003162501128    1.71148984244284    1.48620125266372
O          -0.17614616704898   -1.01712255797144   -3.73654698498077
H           0.27368043542788   -0.12274152689596   -3.65192814954677
H           0.27112344082389   -1.48873774721282   -4.44269796489176
O          -1.92912346373969    0.82253028141548    1.36117991575436
H          -1.81173226748926    0.38851471209544    2.26222254983210
H          -2.87474901402518    0.92421693195562    1.23584957038298
O          -1.53698392345807   -0.24677686755586    3.68578945708629
H          -1.58733418168521    0.34386294576535    4.43949548390164
H          -0.56502389244216   -0.46564771599326    3.58248750342460
O           1.00738332593499   -0.51953529636686    3.20912657149711
H           1.03705872383328   -1.17644609663549    2.49592262746351
H           1.13460670114737    0.33723855109534    2.75486271469334
N           1.12187534648497    1.23959158106966   -3.27938772932603
H           1.20682440135499    0.98552051883275   -2.29426398742421
H           0.61757411357398    2.11579157171756   -3.32726569501798
H           2.05504985110696    1.39947265096268   -3.63772390781111
