    26
        -50.45051531  Gyration_radius:  2.58461987924 Dipole_moment: 3.608
 S           1.12799416425837    0.61721061662838    0.60980375414559
O           0.76849360071195    1.43943873959141   -0.51749518577962
O           1.13278174595788   -0.79565830279155    0.34232730189716
O           0.18520628762589    0.92180659139978    1.78162321270366
O           2.49003531886712    1.04308546712707    1.15335217144577
H           2.39746494198934    2.07026335022354    1.22050455130595
H          -0.79374037777063    0.56846546556530    1.60478873330996
O           1.13694716965920   -3.04911686302155   -1.40587380444316
H           1.45314651025428   -2.31479420520677   -0.86693996001694
H           0.53841518331647   -2.65640716313418   -2.04987908245741
O          -0.96544138988388   -2.43960886004403    0.48757643901248
H          -0.16892864849611   -1.86784065458665    0.49882188491375
H          -0.61594003392768   -3.33407544053529    0.42939561650170
O          -1.74219775587956    0.75178556560667   -1.28763287059439
H          -0.84411360149144    1.10768834990402   -1.18037045946211
H          -1.63820476466569   -0.09060094526476   -1.76854768494992
O          -1.48283879370188   -1.84442484892032   -2.11581011292628
H          -2.26656125389892   -2.28563279529154   -2.44640658044669
H          -1.37050020507839   -2.12290155168795   -1.18133333393611
O          -2.06976761421972    0.02660783552198    1.19253570382612
H          -1.95107136854394   -0.93288574715274    1.13942365146008
H          -2.11569957134051    0.35084809057684    0.24697824319787
N           1.84173059699576    3.50579882473514    1.08927484890684
H           1.26555863616486    3.29376914600369    0.27972215923511
H           2.44847954119922    4.28763240719108    0.88034634163737
H           1.23875167190096    3.74954691757605    1.86381444151923
