    26
        -50.47395399  Gyration_radius:  2.40841030813 Dipole_moment: 3.049
 S           0.82402241656069   -0.89712725731708    1.27213901017341
O           0.61045233878401   -0.22600931257942    2.53461116289343
O           1.59076906922089   -0.08374325771782    0.33746111062085
O          -0.44006154086203   -1.33098153854080    0.66499093955709
O           1.65190897104276   -2.19833372092384    1.55669181196027
H           1.61656055645251   -2.68889113148928    0.72087399343459
H          -1.77657514076115   -0.30371442191168    0.34617856118011
O          -2.31255595034788    0.49501181650265    0.16273045610588
H          -1.58477813364125    1.40851805435547    1.24279534064127
H          -1.99107373005625    0.80779423026443   -0.70089370800886
O          -0.86484703346648    1.26148234866019   -2.06058393119894
H          -0.23581719850562    0.49986392364301   -2.15294733577879
H          -1.04745594583013    1.56527758839217   -2.95059259535839
O           0.94958379444577   -0.64971267217250   -2.16584638201125
H           0.80723171925319   -1.60187832028935   -2.13091096752995
H           1.31965265342055   -0.42451115972542   -1.28587252375443
O           0.63633960207138   -3.15298224526967   -0.79628082799891
H           0.18349034872750   -3.99771072094900   -0.76375092715531
H           0.05595184128677   -2.50191379263308   -0.33344035200757
O           0.80331057595540    2.42764855131056   -0.17947172937651
H           0.23423640293948    2.20661899749517   -0.93889110308604
H           1.31327064562911    1.60966860607955   -0.01353076346684
N          -0.80121193382827    1.86476511703480    1.80526680333482
H          -0.14532111693175    2.30113836163301    1.08425793052577
H          -0.25772709273842    1.07859961799206    2.25488545310935
H          -1.13935614879944    2.53112234817336    2.49013055319701
