    26
        -50.45643860  Gyration_radius:  2.41270534336 Dipole_moment: 8.009
 S           0.73674791683284    1.10445808440104   -1.11321689011514
O          -0.29121258887405    1.82167443158117   -0.36206837207936
O           0.71427162298476    1.37062226752870   -2.52133101199700
O           0.44267854301809   -0.44114892293652   -0.90728893724496
O           2.04923880027871    1.26803387459231   -0.47287128321408
H           2.50884283301616    0.01481990057664   -0.01905789869832
H          -0.20807084557468   -0.65044418867920   -1.65132737833794
O           0.65931087635309   -1.48371326892299    1.84167600498543
H          -0.06609751316575   -1.76073899951076    1.26972316335111
H           0.42953436752220   -0.56099105930098    2.07902941596868
O          -1.16184674239974   -0.52613813148629   -2.87339035867423
H          -1.91592697218437   -0.12682244249084   -2.37867306399930
H          -0.63800570824034    0.22279588967647   -3.20179439774323
O          -2.63841529395522    0.68115259109497   -1.03057155586884
H          -2.64514135295171    0.04474167946695   -0.29798199203568
H          -1.89363579077976    1.27759037979796   -0.83029160399116
O          -2.22912881510197   -0.74316597205953    1.36196659685469
H          -3.00033711079444   -0.75913710050038    1.93067062611478
H          -1.64948615123313   -0.03876130196655    1.69439675357838
O          -0.20653983394487    1.04945080812658    2.07076624463295
H           0.07281489736474    1.79891055643410    2.59810536384912
H          -0.20634171442730    1.37250837607148    1.12312819507298
N           2.76273096964794   -1.00909277517051    0.34154778516322
H           1.93653785654218   -1.28394449136279    0.96791662931584
H           3.64293788363139   -1.01875695884742    0.84644005008135
H           2.79453986656211   -1.62390322619232   -0.46550209523696
