    26
        -50.45538227  Gyration_radius:  2.4854158627 Dipole_moment: 4.105
 S          -0.41740190627848   -1.54471440362209   -0.33529436153951
O           0.09043017870504   -0.83065892405157   -1.49052668543220
O          -1.84026322143125   -1.64069844713386   -0.28858682792243
O           0.11790814346904   -0.84874203374514    0.93334257113752
O           0.20841611570657   -2.92794211533968   -0.24393007121260
H           1.18278466291366   -2.79469136868125    0.05389688947669
H           0.21816915797093    0.18364259438252    0.81147531216198
O           0.27409935537264    1.63761773135729    0.64574481341470
H          -0.12223163452261    1.81860329350300   -0.22552878785922
H          -0.43280316399913    1.87980444489297    1.30089987946081
O           2.52426166573277   -2.38189838617582    0.60792375979533
H           2.34265854178364   -2.17688311432521    1.52855993283311
H           2.70368899757046   -1.49889325989555    0.15820624804362
O          -1.01811661679589    1.52993414600734   -1.77733872495177
H          -0.65444364130663    0.61622886521445   -1.79734311191448
H          -0.98603229193910    1.86171781124789   -2.67597211817871
O          -1.85613771622913    1.85049801823668    2.15607527113196
H          -1.91461816775414    1.20167518429452    2.85886448145769
H          -2.43516542988644    1.51683992992037    1.42770174442349
O          -3.03821471945642    0.77926007526709    0.03230718709391
H          -2.79728337984615   -0.16096219428435   -0.03052633502733
H          -2.57754045509770    1.20875473721701   -0.70187407313889
N           2.67577501519554   -0.03764196665298   -0.59013700674767
H           3.43708689442014    0.22101076196386   -1.20412591002937
H           2.46494094928504    0.75500739241367    0.00488597252525
H           1.85003266641133   -0.21686878224487   -1.15870003910366
