    26
        -50.44748632  Gyration_radius:  2.4859235427 Dipole_moment: 5.234
 S           1.03064762667136    0.27398461504528    0.08912035703100
O           0.04286738053834    1.20605515803733    0.59235237755505
O           1.78889892001586    0.76633695462651   -1.01242424446379
O           0.32924143983938   -1.04077920965933   -0.24889406242041
O           1.97802408252771   -0.11151384324089    1.24035855659025
H           1.40849590492854   -0.59764761203932    1.90387851911807
H          -0.74700140219163   -0.98583841169409   -0.31431443509188
O           0.22819032947035   -1.39970827883521    2.63921170115111
H          -0.59129006087787   -0.86567120957305    2.61980438037856
H           0.06218440257732   -2.17733506799107    2.09939306997444
O          -2.13101008557961   -0.86135844461295   -0.33195077095216
H          -2.34587719102065   -0.48707175159476    0.53904881542919
H          -2.29005334892119   -0.14130118082236   -1.00217698828923
O          -2.32295387602031    1.06440225928038   -2.08936926932108
H          -1.51296587264949    1.62646613974471   -2.04145390881511
H          -2.40665847272754    0.79601084085396   -3.00593392443257
O          -1.82624275577106    0.30636045133425    2.13617321053134
H          -1.14607122877430    0.77036872562239    1.58627637957727
H          -2.20587322877636    0.96424665266398    2.72099047688269
O          -0.07699298089192    2.49257125209604   -1.91751996100871
H           0.68710416674393    1.90466810057316   -1.78632307167912
H          -0.17677308732179    2.95508945170656   -1.08136294735673
N           3.19040406256397   -1.85578329465014   -0.92348054301821
H           3.50759224436315   -1.55907244292465   -0.00781603898792
H           2.18667209196118   -1.97477963981375   -0.85910181920046
H           3.33944093938327   -1.06870023406353   -1.54448586917426
