    26
        -50.46407697  Gyration_radius:  2.36409623856 Dipole_moment: 3.019
 S          -0.12672102194218   -0.73289892033261    1.18655868725350
O           1.15030177846913   -0.20518826809447    0.68091149968236
O          -0.25806936124783   -2.13927546112379    0.86193495181631
O          -1.24104329981181    0.04824497363685    0.64628729733515
O          -0.11851816323847   -0.56639369659967    2.72163478318899
H          -0.09255614208002    0.43275802972205    2.81868202864385
H          -0.94053800254001    0.87227593404564   -0.72265159166692
O           1.58318108647758    2.18028026116150   -0.28095043405113
H           1.48326951840956    1.30173038376789    0.15586299420454
H           2.46592493966157    2.19132554416615   -0.65435737337866
O          -0.26345797145260   -1.01300211961160   -2.59163143802675
H           0.59026316804315   -1.39189379484092   -2.13847584770772
H          -1.04411256535569   -1.48994236801251   -2.09741236122295
O          -2.00533453563506   -2.02989610540562   -1.06475069277382
H          -1.40267125157697   -2.24139183100552   -0.30819090630243
H          -2.52943251641698   -1.29068624817612   -0.73819205197793
O           1.65293929618957   -1.90822694224928   -1.20188329081747
H           1.61197888836118   -1.24345449463969   -0.46830231670768
H           1.33466497665625   -2.71962008935896   -0.79235870154805
O          -0.59400515695193    1.23861191106946   -1.57486012671820
H           0.20775401919848    1.73450956265818   -1.31060685569152
H          -0.35386659545188    0.00090352787032   -2.27416667618290
N          -0.21377263799927    2.02023747305899    2.42226032256659
H          -0.93300020224952    1.83128716252441    1.73118293305323
H           0.58887847231407    2.39376639215491    1.92954550102004
H          -0.55205672978892    2.72593919362456    3.06392967602259
