    26
        -50.46811965  Gyration_radius:  2.53355797398 Dipole_moment: 5.658
 S           0.73785434817704    0.50704169424985    0.12769705752230
O           0.73650015511553    0.74371248913150   -1.31636593481408
O           1.82574032151950   -0.36674646111455    0.51880497898806
O          -0.56024294667902   -0.06875001497824    0.53955316636739
O           0.90765304424063    1.83974746473612    0.86022847488695
H           0.09654427775530    2.44305777636971    0.64782827938709
H          -0.50958446377354   -1.52951082340085    0.12518849564279
O           1.55221192374561   -2.63253623933684    1.80315939320940
H           1.69633103337066   -1.71589741221694    1.46391405248920
H           2.42443596360601   -2.99723317040590    1.95960508805923
O          -1.16741010641685    3.18010642012534    0.34028321725931
H          -1.80867313488268    2.69289933690716    0.89848494832861
H          -1.37080661474782    2.91771878324085   -0.58494080708581
O           1.49580644090715   -1.64820777977697   -2.01487261118528
H           2.35527163512595   -1.66904563013504   -1.58499201026574
H           1.20721185349272   -0.70833025670844   -1.91625310334842
O          -2.40534448600279    1.33727583431466    1.86604479944941
H          -2.08796137956726    1.34824130407556    2.77064630948905
H          -1.80882640339093    0.73578782112850    1.37614271858644
O          -1.33228664714647    2.15557780074206   -2.12664537223291
H          -0.58780737119293    1.56110849712349   -1.88472231514978
H          -1.01214655139081    2.69802708726886   -2.84956100768414
N          -0.20362545349421   -2.50997027877400   -0.18840174509190
H           0.38097435290563   -2.87051541280566    0.59697662217282
H           0.42935924085517   -2.33299540703823   -1.02226370798768
H          -0.99117902213693   -3.11056344270646   -0.40553897699397
