    26
        -50.45129008  Gyration_radius:  2.51119904057 Dipole_moment: 2.799
 S           0.72022191748878    0.34462596119311   -1.22804141660241
O           1.49588325788296    1.40928296748632   -0.67628718874820
O          -0.60322088980719    0.21718524980720   -0.66144370133903
O           1.45340434591162   -1.00333444121187   -1.09537382603785
O           0.61506136171832    0.50856568025718   -2.74393939642887
H           0.15449286296072   -0.32921497574144   -3.08503489250737
H           1.20704749736965   -1.48757367937862   -0.23220447011382
O          -0.63868905606463   -1.63349145363588   -3.35500679002812
H          -1.47630395889252   -1.43619987959952   -3.78128652735848
H          -0.86497474944689   -2.04028572461344   -2.48232497030056
O           0.83949982059810   -2.04940447259916    1.13130653991403
H           1.56511238749550   -2.57614204607677    1.47488372811624
H           0.93399205189514   -1.14044670523848    1.56356173027389
O          -1.33885641022735   -2.32337760206883   -0.88581654725598
H          -0.78191424992375   -2.75863964574817   -0.23375351493092
H          -1.28065260744480   -1.37382472895101   -0.67046318686523
O          -0.83047120847102    2.82560186008291    0.17394887797671
H           0.09099630017772    2.97395310177239   -0.05999635573519
H          -1.01071805515572    1.92263355432676   -0.12409206110009
O           1.31128006692906    0.34409591986148    1.90520944795955
H           1.52423325157758    0.83359768118069    1.09914112167434
H           0.56825506237944    0.85088799871581    2.33800371552245
N          -0.70504881986857    1.80690824412078    2.87727699104690
H          -0.87926048584874    2.33669837649205    2.02132749968948
H          -0.51350603987444    2.46655987495334    3.62026713929291
H          -1.55586365326655    1.31133887468403    3.11013807375802
