    26
        -50.47059248  Gyration_radius:  2.45844143144 Dipole_moment: 5.575
 S          -0.69842062445092   -1.37964226712010   -0.31259048455423
O          -1.54535267698322   -0.45205943719535   -1.01535910261785
O          -0.95617229119181   -1.44180354290389    1.11188895521361
O           0.73938233228031   -1.06282552357692   -0.53706790937243
O          -0.93245302417053   -2.79053095504076   -0.92894012740643
H          -0.23277461650114   -3.33651558507313   -0.52316023380570
H           0.67489277931750    0.02802051785167   -1.93549293190175
O           1.43842401510426   -3.54761760971916   -0.01073468478548
H           2.01202374374270   -3.90234749238097   -0.69385718693037
H           1.42523131444827   -2.57809851208530   -0.12897869909035
O          -1.88150959716089    1.98380819328603    0.09999255349627
H          -1.91751941137374    1.12583280533964   -0.36316989164018
H          -1.77537936570932    1.76372866586376    1.03395629245994
O           0.41198737774436    0.73046536362496   -2.55394403368372
H          -0.53882247175812    0.60420646632631   -2.64568045580734
H           0.53663454985079    2.19042101187903   -1.61303641712324
O          -0.91170893297403    0.74120327603347    2.47285596232385
H          -1.17086799574594    0.56392799492316    3.37821454802968
H          -1.01281692113090   -0.12129735213125    1.98463831861154
O           0.47737889648483    2.76669542111315   -0.81652051823795
H          -0.47139972223604    2.71529116973076   -0.54630920266892
H           1.04040758315861    1.88744680086341    0.21995424596113
N           1.29336450703430    1.07988609818081    0.93322467165504
H           0.58546226955665    1.08004642016164    1.69274359051651
H           2.23473328107775    1.16936097089181    1.29868726817512
H           1.17527500158919    0.18239709127699    0.39868549329401
