    26
        -50.45163682  Gyration_radius:  2.47465941121 Dipole_moment: 4.297
 S          -0.35514696403119   -0.40374448619945   -1.84035960216031
O          -1.38527073034903    0.16370663817059   -2.64246457629899
O          -0.83343093569278   -0.82875534444840   -0.52825496749526
O           0.81469478257469    0.56652728548383   -1.62720564510530
O           0.29959501724584   -1.57964109943411   -2.55079922785772
H           1.19912169166463   -1.80983286532262   -2.10756123544076
H           0.50983169782638    1.37777422840638   -1.06217085819673
O           2.43698108140932   -2.20543792824046   -1.34679749565761
H           2.42540900515294   -3.15629991674852   -1.21554726328357
H           2.27109912841370   -1.78216556051475   -0.44550853169312
O          -2.55787622260084    1.28783489662099   -0.36221718724665
H          -2.10470929858895    0.44533201861904   -0.53435543885120
H          -2.92854751768732    1.53795252958668   -1.21238273400233
O          -0.08178731573847    2.38315714070169   -0.13762023058425
H           0.23799017693360    2.10888099111690    0.75087082954011
H          -1.03964059105626    2.18083422693670   -0.15685728560356
O           0.52094625970667    1.38640106913329    2.28811897780138
H          -0.25645851812829    0.77935610703042    2.30368513473546
H           0.43372380592171    1.96351768845753    3.04802465561789
O          -1.66416117697121   -0.13262597887036    2.02200478432658
H          -1.41184622111982   -0.61311380787901    1.21885683613029
H          -2.37386936146679    0.45422117161418    1.74106865268849
N           1.63191403490511   -1.15660505680598    0.91748258722024
H           0.68764617044335   -1.06355239093808    0.54777843800168
H           1.94749987485842   -0.22251702108292    1.15045352389364
H           1.57629212637991   -1.68120455540945    1.78175785952302
