    26
        -50.46949717  Gyration_radius:  2.39083152082 Dipole_moment: 9.060
 S           0.19750252469112    1.74554967308214    0.53831706285190
O           1.05901804184059    0.54161973230644    0.62278167197342
O          -0.55546202246133    1.91891458030616    1.74593340255978
O          -0.62184783518044    1.66017243917307   -0.66819748607832
O           1.17165129961680    2.94854396218333    0.37017288176610
H           1.51302686441860    2.81870198752357   -0.53632145837465
H          -1.75133282483145    0.46057435546920   -0.79970883087308
O          -2.22187246195853   -0.16622095142775    1.95599632356199
H          -1.76813335106163    0.69986541663789    1.98689212836864
H          -1.53657116106080   -0.80877654172799    2.18527506891604
O          -2.26557271983245   -0.36974731432071   -0.66126373525089
H          -1.26685709975041   -1.39281888787663   -0.74337670235730
H          -2.48932990538306   -0.33348261142705    0.30476425191517
O           1.51332793613948    2.08511832566867   -2.12485607138140
H           1.83788281165362    1.18605247748138   -2.25707061430681
H           0.56911640545591    1.97882514054431   -1.90459591505280
O           0.23660695798645   -1.55557908504816    1.90014469665129
H           0.75972357441160   -1.68692650356429    2.69177082081570
H           0.55578220450205   -0.70377435261687    1.49751152732470
O           1.77018709646632   -0.72808620577455   -1.47736053572914
H           2.65747774019703   -1.04803268012337   -1.30537846145164
H           1.52253078184493   -0.16975173282133   -0.68288473907755
N          -0.42126104946243   -2.13118740823878   -0.68885414021385
H           0.40100438121725   -1.70918972759268   -1.17139835836090
H          -0.67850722794840   -3.02467806531501   -1.09212882060442
H          -0.18809095141857   -2.21568600250976    0.31383601231040
