    26
        -50.45774981  Gyration_radius:  2.44979330931 Dipole_moment: 7.092
 S          -0.98345294452566   -1.47532718066467   -0.21843803327583
O           0.40065370956464   -1.31132507940641    0.21514279767631
O          -1.10538192936443   -2.14521336321211   -1.47911756812539
O          -1.65157290514680   -0.15341492584622   -0.22290637322868
O          -1.71251073623429   -2.32086471952637    0.87781031586888
H          -1.64127846297358   -1.77025834667131    1.67097564029267
H          -0.93452662548873    0.83562182745640   -1.16590461707913
O          -1.77243618726308   -0.00763591395443    2.35302776010646
H          -2.67421592092124    0.15243303351224    2.63997854148122
H          -1.77020947258848    0.10080049445221    1.37317443251310
O          -0.21352085633213    1.30379067031627   -1.70766755653053
H           0.06219219167060    0.54408495194267   -2.42694576907594
H           0.58954535178484    1.34739672871600   -1.00453355503304
O           0.37071765394954   -0.66178333697817   -3.11101716092683
H           1.25332764063196   -0.94486017022050   -2.77190563617163
H          -0.25589586200370   -1.30795733728397   -2.71771754366532
O           1.49449689766656    1.07790449349258    0.09134887672266
H           1.17677169471437    1.57197341769298    0.89500170131688
H           1.19731039911842    0.15336184039636    0.25366667973421
O           2.42709197779054   -1.34771245028306   -1.58085978731444
H           1.77607936094600   -1.57719216755441   -0.89241506496658
H           2.92178326195657   -0.59981816770010   -1.23543557133338
N           0.39881765194359    2.08532356003569    2.31073627099319
H          -0.10127957743436    2.96334258606331    2.25141018927831
H           1.02654376900563    2.13717421050684    3.10291943392973
H          -0.27905006047937    1.35015535474325    2.49967160680519
