    26
        -50.45091776  Gyration_radius:  2.49725687256 Dipole_moment: 2.738
 S          -0.37487294285836   -1.32616611317569   -0.20702416342639
O           0.85177738302233   -0.57156489343299   -0.04338182733389
O          -0.65531101938499   -1.70876538265222   -1.55074797908963
O          -1.52019465420461   -0.45138616115695    0.36513904451228
O          -0.37980297217821   -2.54518839750299    0.69788083901957
H          -0.35371090944263   -2.25789059287158    1.69069095856083
H          -1.34486491436751    0.45965115573976   -0.04474943331842
O          -0.21707405215754   -1.77578371615197    3.09076082611844
H           0.22819106635695   -0.87992930768813    2.97607941423326
H           0.40135703733697   -2.32981903620510    3.57227098598925
O          -0.76051790415836    1.71052447758237   -0.73598423032911
H          -0.86901711605186    1.42890375478269   -1.69901524008384
H           0.18489354827928    1.63273072455952   -0.56865753762965
O          -1.29015860814348    1.99795371860540    2.04926115622604
H          -1.96493899174832    1.31527445155910    2.09159961615993
H          -1.27786135750784    2.31413596436567    1.13810178607158
O           0.92306907492615    0.44642845081023    2.44815973348951
H           1.06188131059147    0.16294745953103    1.52629284002410
H           0.22047082470788    1.12598851008776    2.42514267340427
O          -0.74584398291210    0.58830431395553   -3.04946997806769
H           0.22828621047453    0.59970119158730   -3.17467183151014
H          -0.92824146505358   -0.31607906003912   -2.74826298019828
N           1.92783189190891    0.22863459328238   -2.67344044194553
H           1.71472759067930   -0.13479782692703   -1.74646654734506
H           2.72580926244497    0.84677552153167   -2.58974885825612
H           2.21411567939341   -0.56058381013643   -3.23975882525776
