    26
        -50.46487307  Gyration_radius:  2.45887076806 Dipole_moment: 5.074
 S           0.14615444757848   -0.77904171962026    0.97094849666758
O           1.27583603112496   -0.62292159924330   -0.09377231111097
O          -0.92243663137247   -1.57190216106045    0.40134857144320
O           0.78648964285503   -1.34801075426099    2.12895240597598
O          -0.31843921853185    0.60782207586539    1.23331453368277
O          -1.27150606238242   -1.88088049371253   -2.29164367107414
H          -1.05297745991227   -2.02768375105396   -1.35492437655377
H          -2.19728738544798   -1.61647961498228   -2.28792636718833
O           3.12703763966774   -0.28740502999110    1.99457029664743
H           3.53513582486718   -0.81074753117083    1.30012074671197
H           2.26599249677689   -0.75431383458588    2.18373755048061
O          -3.25347392252478   -0.62055236251470   -0.49962145572106
H          -2.44373199686941   -0.99091644122682   -0.08823907243906
H          -3.95224080097691   -0.72281594224721    0.14721770311921
O          -1.68974612190382    1.61534700589766   -0.83209863455156
H          -1.27954471077631    1.37439069898095    0.01973762449646
H          -2.44581297489853    1.00944439460181   -0.90853013068649
O           0.20769679194586    0.33473379692016   -2.15144594565156
H          -0.49884991307155    0.93161257237695   -1.79407895782248
H           0.86620534664200   -0.24898253951863   -0.96901921681517
H          -0.27200569059329   -0.46549968839703   -2.46420184457036
N           1.89700392492086    1.81473223036816    1.06504165735247
H           2.00171388389675    2.67175088695573    1.59934491304008
H           2.53223402072963    1.02578228074298    1.43762701253653
H           0.88572655239805    1.38768218322823    1.17751201585349
H           2.07082625586989    1.97485533764073    0.07602846617458
