    26
        -50.46265354  Gyration_radius:  2.50318743466 Dipole_moment: 5.435
 S          -0.16263500133484    0.88280461788152    1.06891674400086
O          -1.14672469280656    1.91022299445452    0.75119562953731
O           1.07843036087462    1.07151529768475    0.32106184752274
O          -0.71152070000893   -0.45808246519589    0.82150130180791
O           0.14542938606455    1.00486202917115    2.57268245429542
H           0.68853221167993    0.19993835737970    2.84325924029573
H          -2.10935533977524   -0.33204504316858   -0.02687292297240
O           2.70076070975214   -1.02095621195369    0.79149864715800
H           2.19035684665199   -1.66589874360650    0.26089212099597
H           2.28491159002539   -0.16248196527467    0.58563144829903
O           0.74426351140538   -2.16038962974094   -0.70146645047271
H           0.76291228453903   -1.57180833572581   -1.46648153324783
H           0.15961773658583   -1.71417393876246   -0.06306898659277
O          -1.80294272947019    0.74953653162552   -2.93353377646003
H          -1.79311864059251    1.67162424063483   -3.19754803341157
H          -0.87074439993192    0.51753702719391   -2.72353571816394
O           1.65887379560178   -0.97869050717008    3.17691353695989
H           2.11258598517400   -1.12367385726477    2.29692617340700
H           2.34152354966979   -0.68348774647301    3.78301431806949
O           0.71747864772172    0.32144263476379   -2.13611257963760
H           1.50356227460447    0.60101223768627   -2.60906806334047
H           0.83782840533263    0.63952314318058   -1.20277035273055
N          -2.74611669214026    0.38163667416048   -0.46792780792696
H          -2.53773432485692    0.45281255839387   -1.49650705350462
H          -2.31834519069326    1.23779045796213    0.01865847963450
H          -3.72782957414397    0.22942966224951   -0.26725866372082
