    26
        -50.45429826  Gyration_radius:  2.49714099868 Dipole_moment: 4.474
 S          -0.46348968778543    1.18072746550973   -0.17223989681453
O          -1.13075993694745    0.00012187817579    0.33792258853363
O          -0.44577300092103    1.29798527055120   -1.59255619646419
O           0.99593121961297    1.16662180614927    0.36717802537240
O          -1.04470631292684    2.42093881808450    0.47355604410338
H          -1.24836135677513    2.15450631577319    1.45967856066791
H           1.44015615114747    0.32325934471503    0.01538870835671
O           0.51107300895661   -1.42084892517235    1.99251170469177
H           1.19212215787602   -1.75061781601615    1.39992419161912
H          -0.17928730348526   -1.04317166949683    1.42189489011379
O          -1.43353385845741    1.52760443469905    2.77529509696340
H          -0.50562957491310    1.35864949218060    3.10728574953281
H          -1.80484572732251    0.66422521846664    2.56706124907170
O          -0.30334346962476   -1.96692518321420   -1.39619981113551
H          -0.85944355067609   -1.42454771797658   -0.81704191374915
H          -0.47298828984261   -1.63275550995510   -2.31125389810246
O           1.92938200585539   -1.00268175455084   -0.58199764845703
H           1.10069769409506   -1.47119414793622   -0.93042154866398
H           2.49235621163855   -0.84879567330676   -1.34273365963244
O           1.06563038576383    0.90095376950474    3.22252264538277
H           0.97214009604731   -0.04194848781160    2.96643808592706
H           1.48711048230083    1.32772378928042    2.46995684814398
N          -0.76352009061849   -0.65152113462005   -3.70628676889870
H          -1.70496422415293   -0.70305036035159   -4.07485572644288
H          -0.13143361291922   -0.56961921685652   -4.49270696224084
H          -0.69451939608827    0.20435998464925   -3.15832033782347
