    26
        -50.46009803  Gyration_radius:  2.3796842183 Dipole_moment: 3.036
 S          -0.77474309416750   -0.22103928966298    0.72701516406856
O          -0.59760850034210    0.48827023355454    1.97253117232263
O          -0.79202003055816   -1.67069748772094    0.84946811492431
O           0.51157711472471    0.10053821569791   -0.15078557195652
O          -1.89367878941155    0.27416321482540   -0.06663939284083
H          -1.61547114846217    0.29944835137841   -1.50491982522234
H           1.27434917915421    0.14682135090551    0.50168342202573
O          -0.66332784017900    2.73324145131333    0.46000945546020
H          -0.60300261084515    1.98864817883125    1.08672564203427
H          -1.60305818558894    2.82983818275089    0.28701019588546
O           0.97471342224410   -1.87594205952290    2.81401690021940
H           0.31236548975993   -1.94872928929581    2.09497388295902
H           0.49091106454913   -1.50849511941275    3.55757238336470
O           0.46873859864037    2.16381735607571   -1.93823473045885
H           0.06179610583086    2.48095782145156   -1.09801155727894
H           1.29054838308654    1.74716483264618   -1.66597384102723
O           2.22876573632725    0.21183109900256    1.75341357512446
H           1.95417938345931   -0.63171504584974    2.19059163885108
H           1.79180975961538    0.90595562198088    2.25680715302077
O          -1.15613818945757    0.24095674369434   -2.43106001338052
H          -0.46609828062374    0.99691034315059   -2.36674731305813
H          -0.66961442157166   -0.73694026291729   -2.30841750025965
N          -0.20831927000321   -2.02774272494325   -1.87593099847571
H           0.79529959804978   -2.13904855455888   -1.94561246379821
H          -0.65713487907394   -2.81839954925445   -2.32151397176454
H          -0.45483857396400   -2.02981363187054   -0.87797152054355
