    26
        -50.45702252  Gyration_radius:  2.55367503376 Dipole_moment: 1.235
 S          -0.64405116076152    0.86467818550661    1.13061925959122
O           0.62704194059605    1.50661148911492    0.87214910007901
O          -0.48861885462819   -0.58016848817727    1.29348848893869
O          -1.62884107740770    1.17438518004583    0.09203582355269
O          -1.20613367422030    1.38718412580712    2.48664425695118
H          -1.49748690210303    2.29478923553590    2.26883883836018
H          -1.33981046448470    0.44877377292753   -1.40023744938884
O           1.19148605638854   -3.32815829718977   -0.62821274322461
H           1.22124957140359   -4.01009729966728    0.04509261468408
H           1.71039508027998   -2.53194056066805   -0.26182928143094
O          -1.02465131176566   -2.12405339634185   -0.61250550848984
H          -0.14826427962516   -2.68532033591953   -0.69203408002033
H          -0.90485864149832   -1.55695274534469    0.23850268944178
O          -0.91421516211699   -0.11663037093408   -2.08415267370337
H           0.01874787147381    0.19054427039923   -2.09434034445119
H          -1.00073606496766   -1.37566223695899   -1.36668002566392
O          -2.15859415175639    3.48671156275914    1.19771897049220
H          -3.10445058110811    3.63944391871497    1.25822110267392
H          -2.03378584264241    2.76555646744828    0.54766502389636
O           1.45051491167615    1.03086336554708   -1.55371341434426
H           1.63320832831010    1.86391196661337   -1.99157920745025
H           1.17419684322030    1.26383700736860   -0.63180359197365
N           2.22528921370009   -1.16448321593820    0.37960716938354
H           1.42490663818097   -0.80483493108270    0.89836690091987
H           2.38694025317090   -0.51479168248440   -0.38310112658986
H           3.03052148069811   -1.12419699708926    0.99123922775491
