    26
        -50.45416903  Gyration_radius:  2.49040039072 Dipole_moment: 4.059
 S          -0.58677449933847   -0.94367223254561   -0.57674852629164
O           0.58938433994904   -0.92888300180427    0.27032689563729
O          -0.34277391851455   -0.60575368344577   -1.94193356967631
O          -1.61590116038311    0.04948229732491    0.02086527703350
O          -1.28099524972391   -2.28396776602756   -0.45053023499313
H          -1.24508193183875   -2.52271583274633    0.56238067857699
H          -1.33436649249783    0.98306109432409   -0.31417088059854
O          -1.04780584379616   -2.62522826233927    2.01785755637916
H          -0.11135185947514   -2.45436078417020    2.15737218665763
H          -1.53305660458998   -1.84826949692459    2.42023341012141
O          -0.68110822429995    2.17553584678850   -0.92824648909418
H          -0.74564926188946    2.02106664779224   -1.87438268672405
H           0.28730134595856    2.04417029796722   -0.69711009373800
O           0.44191751896249    0.59152048564474    2.50719153815997
H           0.82906513525947    1.43500576853051    2.26447187201936
H           0.58256205433343    0.00328350636258    1.74525675550438
O          -2.08540925888179   -0.34861082206052    2.78595484946071
H          -1.23933198527605    0.11399131198543    2.93651866648342
H          -2.39279056132941   -0.03916004764620    1.92659048228136
O           1.75797257692676    1.43876692121946   -0.44126662191053
H           2.07547003258749    1.30896563100620   -1.36437908099439
H           1.55048075005265    0.54248010553179   -0.13241180760474
N           2.08544441025220    0.63920905054311   -3.00821564393803
H           1.96094513754593    1.17574587019154   -3.85787946983879
H           1.23954618810469    0.09182013688642   -2.85730883338698
H           2.84230737195658   -0.01348304229000   -3.17043621948585
