    26
        -50.46690816  Gyration_radius:  2.45046316058 Dipole_moment: 5.038
 S           0.34182765694380   -0.66485161148390   -1.03584823554091
O          -0.75825335161124   -0.80200725728507   -0.05355725723978
O           1.51605128547615   -1.38709119202256   -0.56642919527534
O           0.59699127317577    0.73776306278657   -1.29222455052183
O          -0.10100641306052   -1.37280085945340   -2.33401756989288
H          -0.65034489794522   -0.76089676696095   -2.90051531197103
H           1.18527445434533    1.69988356792320   -0.01898346871435
O           0.03453010038305   -1.67904735882079    2.32400752672721
H           0.06970983280700   -2.63651064118848    2.33303100738750
H          -0.30611739381666   -1.43643444624505    1.43147918123926
O          -1.73512152515852    0.11897370157401   -3.68078975393351
H          -2.03074969132888    0.61255178668704   -2.87565173036730
H          -2.47583694294115   -0.42444920380389   -3.95778768668796
O          -2.20676661173899    1.08617792569033   -1.28290645832320
H          -1.57550512479761    1.80545441183911   -1.18690483178576
H          -1.80626534673878    0.33697420218615   -0.80261449136715
O          -0.97857923774335    1.15551375267212    1.84665324729160
H          -1.10467336108933    0.66092668286387    2.65876373395910
H          -1.01452381093380    0.49456238049442    1.13157380741568
O           1.38280589044243    2.01029990804194    0.89356800123397
H           0.51230812240327    2.00834168898509    1.33765078932054
H           2.00594957340825    0.72416994566729    1.45327106091260
N           2.25512139629167   -0.31110380788720    1.64073797105968
H           3.18936266018356   -0.43122040663584    2.01452923885561
H           2.12668038735807   -0.78922999436643    0.68946806276505
H           1.52713107606130   -0.75594947109758    2.23349691392117
