    26
        -50.45402921  Gyration_radius:  2.47104016089 Dipole_moment: 4.810
 S           1.08345230037432   -1.13593808114674    0.59084372640335
O           1.79978493705145    0.09683928049433    0.33982007386057
O           1.25243070160369   -2.13742495882600   -0.40967204230906
O          -0.41884916490517   -0.78344330890020    0.74557011279853
O           1.42352247996336   -1.68518424953884    1.96686729866880
H           0.98094603208326   -1.06278444682847    2.65662627579655
H          -0.77510337404143   -0.41939234489046   -0.15848686125853
O          -1.68533489352761    2.22441944967564    0.28849550016908
H          -2.55972859245265    2.24550008658399    0.67932378361832
H          -1.70004125578625    1.54204821402510   -0.39790915392618
O           0.56918272208921    1.92783442595552    1.87709036681322
H           1.14966395383109    1.40109186639151    1.29982778684400
H          -0.22485301923689    2.13112619168730    1.35160181619816
O           0.15851820896581   -0.09562265759665    3.46450617736616
H          -0.74985481400664   -0.33571731398423    3.26403158068429
H           0.32222539648070    0.77361175047809    2.99784718097734
O          -1.16326596432980    0.11614214623639   -1.48172223419371
H          -1.09201272699451   -0.72545688401594   -2.02267167113998
H          -0.37918169424825    0.65273909166485   -1.75842227600727
O           1.07857168580306    1.47268833535914   -1.82536711686016
H           1.52972008474548    0.96902594811108   -1.11922486015516
H           1.03623505603251    2.38237228989798   -1.52078029670189
N          -0.55200318893583   -2.15984263547997   -2.65280434901041
H          -0.08158517672424   -2.09170101553729   -3.54671780816286
H          -1.16311781251661   -2.96595324268313   -2.68482533180237
H           0.16067811860140   -2.33697794707044   -1.94384767865230
