    26
        -50.44773021  Gyration_radius:  2.51340689572 Dipole_moment: 2.760
 S          -1.45227256612396   -1.52604382754732   -0.13753198318855
O          -1.62240074148029   -1.56966758677987    1.29542080996980
O          -0.07802016248249   -1.39003951076862   -0.56401643343636
O          -2.32324141932091   -0.51297989923169   -0.75864557255486
O          -1.96775933877118   -2.90935307914577   -0.70359545593667
H          -2.83130707175312   -2.95184759371771   -0.30693242522917
H          -1.94618732394971    0.79056302856000   -0.72902326165834
O           0.28701786726795   -0.14408418192113    2.45500357782375
H           1.07026554771261   -0.68145248810438    2.18707083147164
H          -0.48107515940715   -0.67478261985853    2.15519466814683
O          -0.08120637160071    1.98120417264396   -2.77933468688232
H           0.62709487187181    1.42437744715817   -2.34929870974682
H           0.32420931425866    2.81808912629797   -3.01125682310262
O           1.54126538509419    0.63695330176989   -1.24416941345007
H           1.03584577134005   -0.18735076265362   -1.10705679442786
H           1.44301795161587    1.12358509173732   -0.41396325074463
O           0.34217143024316    1.89913047813100    0.97237773668524
H           0.32863534827866    2.65235698407323    1.56490510114204
H           0.31823256072715    1.06854441484610    1.58415735455011
O          -1.57231379252228    1.81532708568223   -0.71901555547218
H          -0.84399905171837    1.85576449578707    0.00110623753665
H          -1.08248549128686    1.92822595184993   -1.61346174738216
N           2.15369982063855   -1.69588763405028    1.25737983027837
H           1.44660271571854   -1.81253879762859    0.53272925005806
H           2.37979940942832   -2.61378412956768    1.61835491207370
H           2.98441049623258   -1.32430947756424    0.81360182348207
