    26
        -50.44773022  Gyration_radius:  2.51338682339 Dipole_moment: 2.758
 S          -1.53547831303002    1.03816120305951    1.00999932700919
O          -0.12542889477424    1.26871002784617    0.79156638406314
O          -1.82241880043527   -0.09590687408891    1.85600032319406
O          -2.28471690904543    0.97586094411628   -0.25701574048749
O          -2.09430712711225    2.31763886414152    1.75192385600944
H          -2.98772584016235    2.04311115798855    1.92875904852080
H          -1.82419386460031    0.18349728463531   -1.25851656750084
O           0.38874204755453   -1.90534823943006   -0.94318208507526
H           0.37708623638189   -2.82511656632406   -1.21249912927619
H           0.26060477224525   -1.91774975387268    0.08064117420277
O          -1.38428428290516   -0.43075632053700   -2.04523983854307
H          -0.81752796809149    0.21750905665304   -2.60319995203188
H          -0.71518901196344   -1.05886457199290   -1.58861627647571
O           0.27544240230910    1.10743150588054   -3.21781860246101
H           0.90836534230730    1.06287731194821   -2.44704489207562
H           0.75272758851117    0.79787464046707   -3.98913467005980
O           0.07888936141292   -1.91822442926165    1.56272742225491
H          -0.69649987723125   -1.34538388849781    1.74210031414482
H           0.84337265650476   -1.40846139291515    1.92279934258052
O           1.67619253578683    0.59833241495608   -1.07893974361649
H           1.54441098789020   -0.35702637587247   -1.00405044550278
H           1.10728427384595    0.98015277173855   -0.38305857815123
N           1.92686508833568   -0.09035201817351    2.31869077336348
H           2.05949873437590    0.14483417545356    3.29389663913297
H           1.27408120031099    0.58450262022404    1.92228814851129
H           2.81420766157822    0.03269643185887    1.84692379826611
