    26
        -50.46272242  Gyration_radius:  2.43640577716 Dipole_moment: 8.952
 S          -0.69216964659068    0.47564243046267    0.71909469185443
O          -0.16040127987925    1.71226918551092    1.24761966034389
O           0.04634692174812   -0.68865588973964    1.21067022345275
O          -0.67063281052702    0.46860950378084   -0.75458809058431
O          -2.16255961685379    0.33674960556961    1.16716726501526
H          -2.36347960770021   -0.64752376886355    1.11693623586866
H           0.73829403206013    0.61038568744667   -1.28306189068656
O          -2.26348622425080    3.03119958013227    0.03510378075163
H          -1.46481273817164    2.74654621472928    0.49565885588051
H          -2.91120853056188    2.34511226278157    0.20720232559077
O           2.37612437114598    2.01757734831907    0.69106582334732
H           1.42074446871257    2.04453037411646    0.94368454610964
H           2.84246189335332    1.73092209775378    1.47839579738023
O           1.67067112082636   -1.92171204580470   -0.38493941578557
H           1.04790106290462   -1.48479551749548    0.25856396045399
H           2.23055441837295   -2.49782543854251    0.13754568361342
O          -1.06644590810650   -2.08992026360033   -1.42463212547105
H          -0.15324119218611   -2.38043633279879   -1.32092347995252
H          -1.03921720552731   -1.11777019846023   -1.33811783377971
O          -2.21196492684251   -2.21964524061309    0.98876735133147
H          -1.98037659969737   -2.34562132325752    0.03986514071958
H          -1.36644256171919   -2.21417767595224    1.45397291137979
N           1.80514538098447    0.54445760846228   -1.42589339952104
H           2.03166920949624   -0.45048470971823   -1.22650675059323
H           2.21604187380936    1.16108571461874   -0.67431388717541
H           2.08048408523113    0.83348079114883   -2.35833738953841
