    26
        -50.47202835  Gyration_radius:  2.47711450607 Dipole_moment: 4.469
 S           0.02331176200456   -1.00543925477758   -1.15621197898674
O           1.17844431786335   -0.14003912949008   -0.86165715090552
O          -1.17237329811727   -0.22795278572299   -1.38216184393339
O          -0.13022712560486   -2.00184840193453   -0.10022017239949
O           0.34622874343794   -1.75343714556672   -2.48481413642743
H           1.02627009353275   -2.40676888497768   -2.22358798458331
H          -0.66586674861454   -1.50389809129421    1.47539381606757
O          -2.34260951972771    0.79326786049774    0.83315899589393
H          -1.89274187509531    1.64839683347647    0.85936741472703
H          -2.09183677176141    0.39010203320019   -0.01868732500421
O          -0.85549439625636   -0.90275002834691    2.22422034193942
H          -1.60816848544345   -0.35244827230763    1.90328924758016
H           0.26818892556479    0.08672880006481    2.00524687168014
O           1.76724469335416   -3.49833961634120   -1.09711559078565
H           1.49211435502159   -4.41539111135196   -1.16675667488896
H           1.13441899012339   -3.06379636003327   -0.48828900366044
O          -0.42826738058998    2.92657133165162    0.69347645849451
H          -0.25181117643762    2.70142784283989   -0.26469629060178
H          -0.47444968397499    3.88183351964690    0.74387651569736
O           0.07399034972699    2.11411163732264   -1.74131343659127
H          -0.70245584503234    1.57103347470395   -1.94427670603739
H           0.74861082507262    1.43519834445165   -1.55505182743372
N           0.99099289570637    0.77878896935742    1.57370125163211
H           0.53571964672734    1.70152364582206    1.44102178408583
H           1.19390243625853    0.39058068100135    0.60485285620912
H           1.83686426225923    0.85254409810414    2.12723456822609
