    26
        -50.46272180  Gyration_radius:  2.43537824079 Dipole_moment: 8.964
 S          -0.43238957777572    0.54251551111194    0.86051441988663
O           0.71300877785452    1.17182425226966    0.20095813752632
O          -0.06402781334998   -0.04992107285078    2.12732886504263
O          -1.01837502536004   -0.45713586705412   -0.05006132416805
O          -1.49901413636394    1.62917406636842    1.11308161468833
H          -1.44305261642793    2.24685590964252    0.32094558714073
H          -0.03519552168743   -1.56563447328162   -0.34929436992545
O           1.87016791588308   -1.78796223423132    1.86132470220457
H           1.12474451014442   -1.18441680196619    2.10122367244191
H           2.67061870502124   -1.30356213168672    2.07168788416403
O          -0.96195363180605    2.97184203344358   -1.00248959708924
H          -0.03211968054304    2.87234155812356   -0.76414917399383
H          -1.12154454073484    2.29266030519871   -1.69778449199296
O          -0.99844097813245    0.72381233433310   -2.44976166018184
H          -0.08382433348614    0.51697926990768   -2.67319171386480
H          -1.18416318398680    0.22145333692226   -1.63345361014159
O          -2.73990529283826   -0.59600320215916    2.54752250412827
H          -3.05974662465863    0.21610577272652    2.14993433097640
H          -1.77887908241395   -0.51084849220368    2.55916732929392
O           1.78243999017657    0.01961971682531   -1.85691011081629
H           2.63053024914814    0.43112978539299   -2.02938342623905
H           1.39468187722227    0.50315589725499   -1.07680139392485
N           0.85867764761015   -2.13311668109846   -0.55391875341386
H           1.37603196464989   -2.16141856324101    0.36606818620958
H           1.38565637437459   -1.55002439566318   -1.23427706331895
H           0.64607400758979   -3.05942584410074   -0.90828054456169
