    26
        -50.44440617  Gyration_radius:  2.59397836515 Dipole_moment: 4.168
 S          -0.18620108756270   -0.42707223389464    1.27198287005635
O          -0.52670420859240    0.94109337441249    1.04004534788197
O           0.64406574970350   -1.04116841790228    0.27583496577320
O          -1.47329725872199   -1.25790532029742    1.44978203994342
O           0.49123622810737   -0.55275287696093    2.65644192307300
H           0.53229522534517   -1.52307010592342    2.83938792229515
H          -2.20624901709722   -0.78709475761010    0.82913108954959
O          -2.90642887315136    0.01123463397348   -0.10963461628380
H          -2.62609690803680    0.89700359434043    0.14838643174482
H          -2.33803511780173   -0.22700092631625   -0.91143730417226
O          -1.09749840045026   -0.57680338416057   -1.83170940646267
H          -0.36754074100969   -0.85188918202169   -1.25956128807682
H          -0.78226084989268    0.22931753357772   -2.30469593646877
O           0.93719964404324    2.60305714369163   -0.65065327719263
H           1.75054797826142    2.05427739278294   -0.69552668069292
H           0.39445581164843    2.18339072817640    0.03166320710710
O          -0.24133979629832    1.73393412366720   -2.84969572818000
H           0.23300721011201    2.12183666574408   -2.06885511797431
H          -0.86113302630368    2.40127742550528   -3.14603358345889
O           0.01332488567006   -3.11166639230580    2.80695284810074
H          -0.66209596499422   -2.92626598377797    2.14078920061475
H          -0.44415694882394   -3.40760412546428    3.59880046490975
N           2.82953870892012    0.63331935136872   -0.79444095906936
H           3.69482368742144    0.54603301374159   -0.27686046103245
H           3.02070286698779    0.39216897304970   -1.75923662428940
H           2.17784024251070   -0.05765023737983   -0.43085735768063
