    26
        -50.46549849  Gyration_radius:  2.48948191158 Dipole_moment: 2.009
 S           0.93459399693920    1.41707847041101   -0.15447701987753
O           0.91444497519265    0.66415130700472    1.10053484803420
O          -0.07497580846514    2.45890443558553   -0.15903506398902
O           0.80875236391938    0.50851958518227   -1.29125827865276
O           2.31912582999407    2.12664545487783   -0.26026088477959
H           2.93345182997732    1.39475777827696   -0.47828619104856
H          -0.70936424754928   -0.18815035812571   -1.69011193120941
O           1.12030559362968   -1.95878815636344    0.83196735616536
H           1.28097387516213   -2.23632521765993    1.73552189506665
H           1.09584721613477   -0.97810439066074    0.85712197486764
O          -1.34562115117463    0.45298526923581    2.43386427105000
H          -1.27693581729442    1.05845567530020    3.17366891573174
H          -0.46577706870293    0.47831804132734    1.98775372843779
O          -1.62261313343821   -0.54219921039454   -1.66279791448354
H          -2.20535078015929    0.43327392652790   -0.65916718209587
H          -1.54290950041647   -1.41548098713313   -1.21198835100031
O           3.34957126002437   -0.12856691590269   -1.14431742706251
H           3.75424733367306   -0.13872126319102   -2.01446423041711
H           2.38352292211863   -0.19737754317740   -1.28657277116215
O          -1.13055993493845   -2.80288569191128   -0.33802000215874
H          -0.85082580182650   -3.51864173770721   -0.91077167859433
H          -0.31927437066637   -2.50212672766049    0.13202029387179
N          -2.35324976889158    1.21866184626034    0.07613333633454
H          -2.23052068894895    0.83243774295815    1.03837255917673
H          -3.24003499219394    1.69561988142090   -0.03928926575722
H          -1.52682414209806    1.86755878549617   -0.06614099643141
