    26
        -50.46549813  Gyration_radius:  2.48963030537 Dipole_moment: 2.020
 S           0.21956179006773    1.46999045471928    0.83608389475986
O           1.03511147554696    2.23493211771601   -0.08825018331519
O           0.90702702934869    0.25185948905387    1.26717295955043
O          -1.09371437917334    1.14210881051368    0.28708667973410
O           0.00222512278928    2.36352873691212    2.09545558571904
H          -0.71980149892422    1.90683172739800    2.57566322823302
H          -1.24079040648389    0.46256962573193   -1.28336280057878
O          -1.20548360998982   -2.50998769051951   -1.22261124963032
H          -2.10109007554736   -2.84882937086687   -1.18185496620425
H          -0.94597153551562   -2.32369101216789   -0.29116399140948
O          -2.11229311398556    0.91398522719834    2.69388093585899
H          -2.96560343035789    1.34937589095646    2.75059139819313
H          -1.94011524971550    0.76359962785937    1.74201780454875
O          -0.59050504069143   -1.92738681595384    1.31293967279483
H          -0.02519490413079   -2.54266244813538    1.78296955764519
H          -0.11061727240728   -1.07146259714511    1.31759598905808
O           2.65339787419934   -0.87508901722448   -0.34815730616320
H           3.51934218444979   -0.65167029299259   -0.00349134596187
H           2.00704270813734   -0.51806962542295    0.30650912344331
O          -1.07962980014800   -0.00608224381975   -2.12864177814836
H          -1.14225005036019   -0.96398834214487   -1.90350657337328
H           0.39126740551550    0.32519839234729   -2.28569636880001
N           1.40917741295264    0.67475325860410   -2.14007864149442
H           1.83137475957990    1.00735577630471   -2.99932544144370
H           1.97811805982874   -0.06898767061741   -1.67824166914386
H           1.31941453501697    1.44181796171545   -1.41358451384961
