    26
        -50.45755050  Gyration_radius:  2.53667112659 Dipole_moment: 10.382
 S          -0.05490936343978    0.95221370228353   -0.61192167115104
O          -0.29744790406028    1.03381765060558    0.82546144112245
O          -1.18493569383313    0.47487006435067   -1.35595708070551
O           1.13911809448009   -0.07377184207293   -0.78583192324668
O           0.51918447234110    2.20174586620576   -1.12389257518307
H           1.79292024465783    2.19740281897462   -0.58619049154741
H           0.77199878466693   -0.97887334084923   -0.58735876443466
O          -3.42060410471407   -0.99892230831056   -0.17763027108022
H          -3.03990641534603   -0.18848485730888   -0.53639013658532
H          -2.90964629240948   -1.17074814536584    0.63869489674747
O           1.71418910300712    1.68260230901003    2.31362125653891
H           1.40443710598461    2.35066498829688    2.92769340867272
H           0.90255717763688    1.36264465549541    1.83548825545417
O          -1.46437589930916   -1.25138708302017    1.69814279717407
H          -0.88606755556142   -1.87531837851248    1.24353448188395
H          -1.10140814110257   -0.37110000919011    1.49709668253097
O           0.14235364967335   -2.42580970737381   -0.33494731091326
H          -0.64323247362905   -2.38844707491946   -0.97664323448501
H           0.68913428833801   -3.15744204966382   -0.62601398261411
O          -1.80313610984291   -2.10168414326466   -1.98163145265770
H          -2.57814423605514   -1.98149826180778   -1.38557087611657
H          -1.55961210133277   -1.18457390702654   -2.18424606920460
N           2.77957633781915    2.03308903414609   -0.06069612672612
H           3.10367663652461    1.12036234980611   -0.37220782978670
H           2.52546038207104    1.97849046064110    0.96658564807293
H           3.45882000348066    2.76015719892117   -0.25918907172291
