    26
        -50.46248026  Gyration_radius:  2.44521672201 Dipole_moment: 7.595
 S           0.44853697681011   -1.02156654936339   -0.16309426944199
O           0.23633946805480   -1.28360514948830    1.24549846734644
O           1.08752165341888    0.26805661311062   -0.40726584503244
O          -0.94051938049867   -0.97711860483100   -0.86850930099359
O           1.19339396068313   -2.07820172935414   -0.85408009512493
H           1.70747670760901   -1.36750202475051   -1.94555385373762
H          -1.61491221219129   -0.37692254801134   -0.30542103886924
O           0.51564872592714    0.69417144314292    3.01654842995327
H           0.49918784602424   -0.04624244883335    2.37208314366272
H           1.40203877919620    0.71372672763226    3.37814546964241
O          -2.39869267417611    0.52204195872760    0.47004674433840
H          -1.76556993047390    1.27331213801680    0.61172152602064
H          -2.47102835674672    0.06265075421310    1.34001332666996
O          -0.27247800080266    0.64819207744940   -2.88736850834238
H          -0.69741673520272    0.01452317457305   -2.27330840834833
H          -0.20852247973808    1.46988825548195   -2.39134520336721
O          -1.99728551284554   -0.80239449760799    2.74742452003818
H          -1.54489773349637   -0.18519740054847    3.33256885200560
H          -1.28414880257374   -1.27304609745393    2.28453679182830
O          -0.34063645003352    2.12756511462964    0.81832032671986
H          -0.11353903922075    1.95065226051901    1.74513898372930
H           0.26378535490867    1.54254291915791    0.31503924308723
N           2.02982847277087   -0.64722304396221   -2.74462926138214
H           2.38137683032932   -1.11334769659925   -3.57500470176835
H           2.72971577753179   -0.04154476347780   -2.32484367966050
H           1.15479676474458   -0.07341087239674   -2.93666164896826
