    26
        -50.46966704  Gyration_radius:  2.51780157404 Dipole_moment: 4.960
 S          -0.92564146840122   -1.16691878824219    0.21441902782628
O           0.45465447203010   -1.62013190353646    0.27794386994310
O          -1.25741595854271   -0.58367830584473   -1.07187267053101
O          -1.21819773597499   -0.24553611538649    1.32416140147200
O          -1.85818487039447   -2.40932854146950    0.38864586580382
H          -1.78079407253501   -2.65237714788540    1.33054147537371
H          -1.51845344583774    1.32369830348402    0.59494276467737
O           1.53439815088736    0.33573672322075    1.59895605564080
H           0.81404434903941    0.45092367907202    2.22592536807277
H           1.28322966841421   -0.48654365723813    1.11053032130495
O           0.95771819586501   -1.25561219130769   -2.36326884884848
H           0.03768423429810   -1.03221292654819   -2.12166181454005
H           1.28138108879410   -1.68316533136231   -1.55958064322639
O          -1.63865000430846   -2.19073290881958    3.03331646464214
H          -2.47452106346628   -2.08180706917986    3.49206566383314
H          -1.44068814859896   -1.33386049437655    2.60290869508969
O          -1.47607255753798    1.89369879227704   -0.19822788998209
H          -1.61649249286630    1.23282419772224   -0.89792182219717
H           0.08479886008743    2.18106346857734   -0.29179121031875
O           1.93645374080551    1.15521821531644   -2.61246011119075
H           1.66280229565125    0.19777693838461   -2.54348906892751
H           1.54796287114334    1.47357998109383   -3.42881144018271
N           1.15021441901347    2.15832856405902   -0.28161690841131
H           1.49772111659371    1.80288174014895   -1.21530054019434
H           1.42360960730673    1.46213961208686    0.47440224113560
H           1.53843874853966    3.07403515575566   -0.08275624630733
