    26
        -50.44457536  Gyration_radius:  2.65546051527 Dipole_moment: 1.112
 S           1.31299916356419   -0.22610038228452   -0.64803192391746
O           1.90449449087615   -0.20335833676380   -1.94200909072011
O          -0.02427508006736   -0.77669937035493   -0.58211819061599
O           1.27207512492994    1.19463096258285   -0.04994770244460
O           2.23536339736192   -1.00646748635453    0.30115836350156
H           1.91999764418425   -0.84920637956797    1.25085810420090
H           0.30742890404360    1.40358191008639    0.22512340216473
O           1.40942049296995   -0.65000634870510    2.68086743855975
H           0.89649866264822   -1.47750788036863    2.88728913381920
H           2.12775146871811   -0.60280756610129    3.31467178828105
O          -1.20276756998177    1.52856041004135    0.33475955883585
H          -1.35824538147241    2.20347489923141   -0.37666539437522
H          -1.38320090979487    0.67612161368365   -0.08232034291953
O          -0.00413651898402   -2.84457791869662    2.96832047674289
H          -0.76795436571884   -2.44454664703432    2.48953910678990
H           0.29622938788063   -3.57507803391544    2.42455381417080
O          -1.23076421984298    3.01201957436896   -1.82976138058777
H          -1.00711859443784    2.23629048118503   -2.41142007547429
H          -0.46417894707140    3.58733336882380   -1.84414884863492
O          -1.66926840463936   -1.44942030234280    1.44289822186999
H          -1.79125504008468   -0.57308463356456    1.81788020991117
H          -1.08768248939092   -1.33133089865345    0.66837296101674
N          -0.50981850197707    0.79245325161545   -3.15549278672206
H          -1.09774200270409    0.02297420201579   -2.85617054190222
H           0.43448035449210    0.55193577496306   -2.85929901868892
H          -0.51833106555259    0.80081574645603   -4.16890726275908
