    26
        -50.46240672  Gyration_radius:  2.40680607632 Dipole_moment: 7.416
 S           0.11173307989220    0.64596112622996    0.69776493804386
O          -0.33828174711120   -0.60362981398584   -0.12497920609611
O          -0.95101109471782    0.78666474131508    1.69597433775020
O           1.38566709951640    0.28402811323857    1.31216216475280
O           0.22265925420989    1.78401940592305   -0.18588459276090
O          -2.45205056277087    1.56388217096432   -0.71415934178749
H          -1.52896079452296    1.70338846407240   -0.45715446525546
H          -2.95955672162225    1.72091856592964    0.08322569910051
O           1.08973892261095   -2.22575264842275    1.89873420033386
H           1.32595281142707   -1.26910069976908    1.77805587133967
H           1.37094700366824   -2.65768287933072    1.08833735650555
O           2.84435868375945    0.72502053344630   -0.88504426576498
H           2.46113654114910    0.56834760013049   -0.00092971153509
H           2.64851664003649    1.64439775920676   -1.08242241521315
O          -0.31823112444385    1.58496571534019   -2.85661872692567
H          -0.03453682224313    1.87975362825481   -1.97484601725102
H          -1.27431025444536    1.50595556472573   -2.78457188287023
O           1.00083113776097   -0.65299163424824   -2.24502416205959
H           1.83175137071860   -0.25207772318060   -1.90254866689384
H           0.19158947974927   -0.67750581193952   -1.01876342395525
H           0.54158296225124    0.07656864798880   -2.72065141637960
N          -1.46474248575154   -1.65805468204397    2.09935411573622
H          -1.94144182080761   -1.90942728345231    2.95962915453862
H          -1.97619241127405   -1.96882061731771    1.27744278061287
H          -1.32376567867618   -0.56416497590560    2.00125300591424
H          -0.46338346833449   -2.03466328712624    2.06166465016786
