    26
        -50.45286232  Gyration_radius:  2.45033589595 Dipole_moment: 5.117
 S          -0.57174640573995    1.78739394533024    0.80860389686155
O          -1.23448645488058    3.01624373432410    0.54409763275201
O           0.51245178673956    1.45473268654827   -0.08294531969765
O          -1.61084241982538    0.62325986673276    0.76941409936563
O          -0.06928833475749    1.71096641212058    2.25329209119493
H           0.43728557592115    0.83574633734721    2.34158323657726
H          -2.19838247707547    0.84554565775795   -0.04885298666031
O          -0.62933233958394   -1.94728437339645    1.02836912166496
H          -0.31345700062456   -2.08589337492375    0.11369704497019
H          -1.25859107747188   -1.21544216933476    0.96753856603007
O          -2.71711193040938    1.39371455913432   -1.33671349993946
H          -2.55725925164308    2.33279050016655   -1.19045781765338
H          -1.99307606455581    1.06583746202351   -1.93622738590439
O          -0.49569752695296    0.50771725439721   -2.40306932021773
H          -0.34553657318205   -0.44082807646739   -2.25923021077697
H           0.01810279302090    0.94407620152022   -1.70133294168479
O           1.06940426627077   -0.57525212283904    2.45185260585064
H           0.47706131081131   -1.16617641985940    1.89857193742532
H           0.95947677993787   -0.86582075348627    3.36007213041764
O           0.39582652884310   -1.98753540280578   -1.49553982650986
H           0.68940269900168   -2.75887191246147   -1.98164124362720
H           1.21681732902534   -1.53326116702783   -1.13927138931271
N           2.41362546539663   -0.67865318630486   -0.38536971988964
H           1.88508496303312    0.18513359678054   -0.26833291917803
H           3.27940202766637   -0.44651804908454   -0.85564255615375
H           2.64086631100216   -1.00162121620569    0.54753476415011
