    26
        -50.46381267  Gyration_radius:  2.3912535504 Dipole_moment: 3.733
 S          -1.04851408298506   -0.89812528185626   -0.68798044883041
O          -0.00510817100052   -1.48171825332155    0.15195399435731
O          -0.74236336889311   -0.97544025800156   -2.09333182751794
O          -1.08672326235837    0.65094475958126   -0.29529582124783
O          -2.36451850272639   -1.37666063298276   -0.28510591871616
H          -2.43904825359552   -0.80488482064682    1.06900258184328
H          -0.70132186623261    1.13369404581535   -1.09024401385098
O           2.46516668960032    1.03227554910496   -1.03332615183726
H           2.37071586160220    0.05850459255281   -1.20874022504678
H           3.37209271429631    1.25890201648573   -1.24336644074655
O           1.96871033432556   -1.49361853494712   -1.57431066050552
H           1.34092720777607   -1.63296124600129   -0.83365751800846
H           1.40849975801934   -1.56316024015501   -2.35411879989646
O           0.12285170127866    1.53682178425459   -2.35805827581306
H           1.03174875920335    1.50366379927660   -2.00128147170166
H          -0.07947736097961    0.64904591057629   -2.69889114872334
O           0.11213245624129   -0.57956308300110    2.59634790603439
H           0.23019656486019   -1.11210227985863    1.77791144871256
H           0.56273920923617    0.26697202409904    2.37772125543390
O           0.99121050371567    1.59863933155711    1.31626294151739
H           1.69598942153897    1.45191929597329    0.66713273299207
H           0.17568059781693    1.50922384735362    0.80387156204075
N          -2.38853419891457   -0.29911313600122    2.03591084826915
H          -1.34411113446170   -0.39098391379839    2.37979879633120
H          -3.03410755603757   -0.72249229490518    2.69559139238695
H          -2.61483404127933    0.68021703878060    1.88620327257694
