    26
        -50.45354017  Gyration_radius:  2.50900055781 Dipole_moment: 2.787
 S           0.54918258676871   -1.01237907792182    0.72156538142776
O          -0.34060291290104   -1.52636824149610    1.72307020356163
O           0.57151287345627    0.43679072990805    0.67022138946733
O           0.19405666370839   -1.55328972724220   -0.65911738472864
O           1.95053126422799   -1.54768052899909    0.97312679637985
H           2.53253503319758   -1.36077304583314    0.15197264560359
H          -0.78047890371600   -1.25279899633755   -0.93751201186618
O          -1.90853402832542    1.55475010740842    1.76944678194086
H          -2.47132424199122    0.77106137993871    1.81042611140822
H          -1.00079221653696    1.22835493637591    1.77409086634042
O          -2.09259822872250   -0.71573661369138   -1.17073014907998
H          -1.91351925586104    0.25909695271677   -1.22679650712997
H          -2.58393808710812   -0.85246486227397   -0.33673455001943
O           3.42903375166120   -0.95771211581324   -0.99469686173917
H           4.31410114424744   -0.79394718061467   -0.66107924052405
H           3.05240536278226   -0.06985287669728   -1.28112711162213
O          -2.90514956665910   -1.07741022037536    1.39413661377346
H          -3.45701748472195   -1.76608200325541    1.76822194085191
H          -1.97553355308082   -1.30930624107325    1.61722121730224
O          -1.26855979859245    1.76827560438668   -0.87251816426821
H          -0.46981071860700    1.41784278642668   -0.44562827341616
H          -1.79912851194571    2.07548290172187   -0.11823615056048
N           2.27766100203969    1.36780969065427   -1.43890543015449
H           1.69883467453284    1.26169204731092   -0.60693711793348
H           1.65475619701025    1.38905236014654   -2.23693576369977
H           2.74237694506726    2.26559219467284   -1.38654523133131
