    26
        -50.46759611  Gyration_radius:  2.50854021318 Dipole_moment: 4.772
 S          -1.39243387594695   -0.64053149076849   -0.26228331701770
O          -2.15390926622661   -1.82277753697535   -0.56136093963024
O           0.00191251579138   -0.75147923696296   -0.72327767089889
O          -1.29763402633310   -0.48416470508087    1.31108734088100
O          -1.97756167856407    0.62224868311444   -0.67566388932532
H          -1.10199631344395    1.56933332282582    0.12938353183983
H          -0.72886392449032   -1.21379052291524    1.66229257423104
O           1.29505560580219    0.95684361796672   -2.29057115571326
H           0.72028551804392    0.32204001137046   -1.81049760398657
H           2.19417894156153    0.72521936688423   -2.04886259848338
O           0.56477332766930    3.39282237362587   -1.55368431666984
H           0.91209468696994    2.53630595517723   -1.90761797084803
H          -0.15011469232491    3.64038746023097   -2.14320612050877
O           1.48916891337670    0.28847184240891    1.15385080928955
H           1.06178449018955   -0.18449305674620    0.40267518704887
H           1.44301297598802   -0.33181239940021    1.88664384054229
O           0.32850741354477   -2.38044613165238    2.08724575034417
H          -0.03547415424111   -2.95681732499371    2.76191270177878
H           0.25477904017068   -2.88700605158097    1.23049919349164
O          -0.15662690400171   -3.49679153844069   -0.22657611755816
H           0.45155394563663   -3.10651892735452   -0.86025677492256
H          -1.00599699400999   -3.02567373996636   -0.38939867301518
N          -0.36287055790977    2.17848366252672    0.61584131936639
H           0.38607176970487    1.53679827769556    0.97644495963850
H          -0.78024435662669    2.71083193793811    1.37144908938907
H           0.04054760989713    2.80251615131759   -0.13606912927517
