    26
        -50.46913951  Gyration_radius:  2.44674174326 Dipole_moment: 5.937
 S           0.60700929472859    0.77145257861865    0.78727816424577
O           0.53910819063768    0.82572972989337    2.32071973443386
O           0.84897528697722   -0.62969383729521    0.40165826158894
O          -0.67180694421611    1.22687083906613    0.24797076807346
O           1.70885100442850    1.59980456284834    0.32644009714693
O          -0.80751586757018    0.05911387310050   -2.07292049653440
H          -0.90173220773222    0.58153328734104   -1.24139716684640
H          -1.06161980483959   -0.83369030178688   -1.81452358492520
O          -1.38184439407135   -1.91863250083009    0.14913979191923
H          -1.20199045952660   -2.84770498675416    0.30324245769664
H          -0.51158053864231   -1.45609366253028    0.21476607280946
O          -3.00725002880580    1.50073610360657    1.52085808037897
H          -2.16048018444727    1.57574201750770    1.03816602515322
H          -3.66964644891462    1.29101010636040    0.85988365167344
O           2.90148034179635   -1.43156642707951   -1.03527385605179
H           2.14604058976611   -1.27457329955135   -0.42180324602774
H           3.69300447766978   -1.31389142866138   -0.50721007661320
O          -1.61001831949990   -0.54978262398603    2.57554387340735
H          -2.25671032624909    0.17123881800054    2.42925892229927
H          -1.65868433167363   -1.09824902995153    1.77044854636665
H          -0.27790859127263    0.26968157500823    2.54505550205593
N           1.76002072315334    0.70993986660932   -2.11626101376245
H           1.78782939294608    1.22481857732026   -1.17912034216942
H           2.34257445474019   -0.14911031613930   -1.96447963559473
H           0.74952218269487    0.40999763618618   -2.25549563565482
H           2.09437251797351    1.28531887308921   -2.88194489504703
