    26
        -50.47385544  Gyration_radius:  2.44293185416 Dipole_moment: 4.146
 S          -1.06493140909977   -1.01925453356343   -0.25067831843870
O          -0.54324854665345   -0.63300833581782    1.06837008845551
O           0.00917960328484   -1.41595044267488   -1.13435555785551
O          -1.90630503622765    0.03709519240328   -0.79566194529726
O          -1.95493581393783   -2.28201708158990   -0.02872708336326
H          -2.74944955277703   -1.91913144781971    0.41022312754066
H          -1.01334554346380    1.47469273182754   -1.17452612483769
O           1.74579594590198   -1.89759143670229    0.88974846563848
H           0.88708540719846   -1.52392818269111    1.18707711596378
H           1.52103366227070   -2.25550931252408    0.02085653261614
O          -3.91192992732260   -0.66699021806189    0.71802304351596
H          -4.72678239658867   -0.71621293508803    0.21284105451393
H          -3.27949164945792   -0.15343117715404    0.17311869294757
O          -0.32861848137235    2.16940788877804   -1.21625855451331
H           0.91286478779867    1.27124117718166   -1.97834832633111
H          -0.07047306393643    2.32341992808496   -0.29778119498031
O           0.51953519994375    1.69397950747613    1.44579846507478
H           0.25577138491338    2.01002287089590    2.31115758084839
H           0.04733631927485    0.82701242186218    1.31843237141546
O           1.55668454196041    0.53052192708767   -2.08796178032725
H           1.01010852124647   -0.27151712524577   -1.95311271339516
H           2.30788442199536    0.55510900926569   -0.79040124239586
N           2.65315008086781    0.49761281974816    0.24645044306571
H           3.63061036529449    0.74606862261087    0.34403540495004
H           2.45518833611354   -0.50025922734631    0.55950032595011
H           2.03728284282877    1.11861735907455    0.80218012920309
