    26
        -50.47297513  Gyration_radius:  2.50287766072 Dipole_moment: 3.054
 S          -0.69734955801677    0.40600358184242    0.75727128634643
O           0.61859316546893    1.06999502804016    0.83068463987794
O          -0.58591445926032   -0.98484844263485    1.17000497994289
O          -1.25486475955975    0.53407506315405   -0.57916315166270
O          -1.63148278695985    1.09212404165993    1.77484241299391
H          -1.72396646900519    2.04941919409042    1.50926753555195
H          -0.42298732792129   -0.35952331126845   -1.73289514004317
O           1.47187939856852   -2.70975113778703    1.14385365248254
H           1.01708111803591   -3.37385456510723    0.61455452279294
H           0.75739480297639   -2.12716581800123    1.46685465415480
O          -1.66462396361625    3.58943575914036    1.06672072706513
H          -1.16845097591567    4.10267560458221    1.70790306029669
H          -1.10123414441616    3.53517021391743    0.25369047419621
O          -0.02927342809592    2.95979263220691   -0.90566179379859
H          -0.61815748791641    2.38202794306412   -1.40565140383772
H           0.40304958787197    2.35291828497331   -0.27202917065703
O          -0.91748746463534   -2.93095454414032   -0.59174175247840
H          -1.84113383124284   -3.15193869431635   -0.71771524624924
H          -0.90103308351576   -2.21114923968422    0.07971646559224
O           0.17640971831589   -1.01073171595281   -2.16354917539863
H          -0.17965981772039   -1.87199081286354   -1.87371890496951
H           1.44495726224790   -0.82379728919692   -1.27445894651419
N           2.09866220463609   -0.66718865792667   -0.43597348322564
H           1.63917037411579    0.10355654265093    0.12899342548073
H           3.04152631413636   -0.41911769805116   -0.71459911870449
H           2.06889558143798   -1.53518195237559    0.16279944093439
