    26
        -50.46913933  Gyration_radius:  2.44711465376 Dipole_moment: 5.929
 S          -0.51572725107824    0.76870402388907    0.84904536835223
O          -1.12593940876197    2.02657282858960    0.45115018829223
O          -1.08191366460719   -0.32923587093420    0.04613538692240
O           0.93682830538398    0.80297374411831    0.69880977198813
O          -0.84941095335929    0.48694422234340    2.32155822432445
O           2.80345823243201   -0.08021472430734    2.39722531404329
H           3.51706335145154   -0.38802216068628    1.83536538286756
H           2.18804260752403    0.40179728546091    1.81019840298036
O           0.59740790219927   -2.29015604095781   -0.14875280735524
H          -0.06154709841646   -1.55516313412506   -0.11527642515222
H           0.09368872965849   -3.09279716064502   -0.29517214847781
O           1.30905055675818    0.15714724908566   -1.79353296619205
H           1.18178292561210   -0.79727451096516   -1.75745483858194
H           1.33871611180917    0.42781760670194   -0.84526538180195
O          -2.81793137404448    0.01427361905305   -1.90060624822103
H          -2.24644179945655   -0.25401710152071   -1.14354261484612
H          -3.63832436534166    0.32041754455958   -1.51010061999188
O           0.59467024183086   -1.61776539434143    2.56292778602003
H           1.45229088583389   -1.18054154211865    2.74397198430988
H          -0.34473756227080   -0.36855203184362    2.52379120170528
H           0.67943043331109   -1.97287738505511    1.65835234148333
N          -0.79965257479944    1.72872650697819   -2.11102071638811
H          -0.91183211991612    2.01791808294361   -1.08725925535659
H          -1.64603846714369    1.14363940741155   -2.31533605743235
H          -0.71124116000538    2.52794089600647   -2.72950193996247
H           0.05830752537583    1.10174405035300   -2.14570935355278
