    26
        -50.47297506  Gyration_radius:  2.5028290646 Dipole_moment: 3.052
 S          -0.57055040362709   -0.85114453070103    0.41817683165891
O          -1.07979231117158    0.43689707575735    0.92767342606342
O           0.76605347570574   -1.10610740928344    0.93370235143489
O          -0.60629389377419   -0.87019854567694   -1.03495133403454
O          -1.47540919827172   -1.97060890017310    0.97211957920734
H          -2.39916904080162   -1.81629856247750    0.62809394392591
H           0.50747035921826    0.17187850353281   -1.73828308786710
O           1.27021536118039    0.77914563527546   -1.87347421672124
H           2.04396355060475    0.21692607807583   -1.67903926652024
H           1.13034488440404    1.66133823379875   -0.59402386832845
O           2.85243932787079   -1.08064403854034   -0.69348606153460
H           2.97630044371290   -1.92073063556010   -1.13706934780658
H           2.06624897087347   -1.19528746280285   -0.11206807537140
O          -3.85902222677386   -1.37024606907461    0.13732190349145
H          -4.38256935404701   -1.06385681899948    0.88073648441444
H          -3.64442479929265   -0.56911542784268   -0.40447159678087
O           2.71122936415448    0.53924395362500    1.78198554337683
H           2.01536927325346   -0.14627246010347    1.77992567617313
H           3.37435088495051    0.20769334859079    1.16689702109997
O          -2.81661308216381    0.74511336641918   -1.04567294338689
H          -2.24100830198405    0.82516920367175   -0.25892511383051
H          -2.25797676510853    0.29322281894277   -1.68933002152639
N           0.95443254795031    1.98950761523216    0.41405191507654
H           0.85276748193445    2.99572765682898    0.48700022135137
H           1.73702445128321    1.61727213592488    1.01556640138932
H           0.07461899989815    1.48137521570885    0.71754362362592
