    26
        -50.45881561  Gyration_radius:  2.44679061889 Dipole_moment: 1.506
 S           0.16770086604571    0.86829141751273   -0.95220304292995
O          -0.95134910745046    1.36264440197096   -0.18206199361686
O           0.22656155159086   -0.58878299528013   -0.95330480470075
O           1.45070640004550    1.41139005089781   -0.46848068034268
O          -0.02416637641483    1.35427584280470   -2.41424862276292
H           0.83803011453983    1.14845790400871   -2.83084199506179
H           1.81329389914254    0.85668941819121    0.90501471318138
O           2.54342038255050    0.97103349602778   -2.81735834904206
H           2.43278728568136    1.11628699550720   -1.85773879433235
H           3.07702888544206    1.69693279060716   -3.14894865564235
O           1.77124159837677   -1.98220302452131    0.68104278726401
H           1.33389677503250   -1.58639375915972   -0.10442146122235
H           1.10226175021865   -2.54378254096688    1.08602770863647
O           1.84942761434693    0.31755522056369    1.77266232613539
H           0.78991309810525    0.37788800361776    2.12692154427643
H           1.96269902952839   -0.65184269418791    1.45510206382548
O          -1.24445525717267   -1.75520553991666    0.98204845941003
H          -0.77107529840185   -1.44958083468274    0.18399663959031
H          -2.17265381195333   -1.49560352191656    0.79845332416009
O          -0.56520270080745    0.40765505481864    2.24596223253495
H          -0.82407195494195    0.96528599840514    1.47799515562027
H          -0.86904642709813   -0.50781432775521    1.96760746505795
N          -3.37089958709282   -0.29867258709158    0.13043887771239
H          -4.04966243409051    0.13706850308610    0.74284107022525
H          -3.84695345465659   -0.53703444019415   -0.73082694949113
H          -2.66943285066699    0.40546116768268   -0.09567902849591
