    26
        -50.45840159  Gyration_radius:  2.40084101784 Dipole_moment: 3.920
 S           0.45537076187174    0.98910481906508   -1.17568742384459
O           1.05121537893471    0.46756394074912    0.05191189012184
O           0.04504953609216    2.35229743352608   -1.06338508678815
O          -0.70751826862072    0.08638992525569   -1.56643790801282
O           1.45383556026162    0.80459506598917   -2.30809294111091
H           1.85130024784814   -0.12544933997854   -2.13514747941856
H          -1.48267033666953    0.04096152831005   -0.79501256973253
O          -1.75868715899117    2.41864583859026    0.97393430412385
H          -1.08669891931880    2.30253864574718    1.67040632495274
H          -1.25264210368194    2.65018279034587    0.17698557152746
O           0.54694211923172    1.81780409263191    2.32384606720193
H           1.10662172128864    2.58677332164610    2.44144613132687
H           0.84077441589383    1.38731237943213    1.49774783183267
O          -0.33611852792677   -1.10798343047847    1.71076993400292
H          -0.24168516513774   -0.66623380465849    2.55902043696948
H           0.26339568204850   -0.62845987335227    1.10442503312099
O          -2.32273670995390   -0.02192099565473    0.28770243698344
H          -1.78196817044052   -0.53645366882938    0.92951266271186
H          -2.30341229300833    0.92685318860662    0.60537300964951
O           2.31780437429408   -1.44712430359500   -1.56362512872930
H           2.61557396549324   -1.16616304309505   -0.69362007084454
H           1.49873951259450   -2.00485435993969   -1.39685373139671
N           0.06321726061714   -2.71650737183947   -0.96728512225680
H          -0.58764816977522   -2.10301618075546   -1.44526313573731
H          -0.11956079805700   -2.63776472084115    0.02687098134252
H          -0.12849391428546   -3.66909188698636   -1.24954200760798
