    26
        -50.44904146  Gyration_radius:  2.62684376022 Dipole_moment: 4.157
 S          -0.96880369076182   -0.11674113282398    0.60645573244836
O          -0.31288314010786    0.76306973988549    1.51524856011426
O          -0.17009028349977   -1.25020519909727    0.18545858136778
O          -1.44610415543320    0.63546253512351   -0.65096960322148
O          -2.27780306042650   -0.61013190201818    1.21480693293452
H          -2.76654338790665   -1.17584806094208    0.52768740304396
H          -0.66548575703328    1.13128773828818   -1.07495941351758
O          -1.16763772959533   -3.42952461834808   -0.95359711766893
H          -0.68463828944380   -2.72355341122458   -0.47579292695127
H          -0.76844739588611   -3.48542289949372   -1.82382430806437
O           0.60034077938487    1.73176153086673   -1.67594438155005
H           0.60425256587830    1.70694303907195   -2.63485011826799
H           1.29264390560744    1.05040795663239   -1.36161674431152
O           2.11653728971040   -0.09536783340990   -0.75279955778032
H           2.51374393447278    0.32528482816022    0.06001946342807
H           1.42033878927036   -0.67911832137435   -0.41183973066399
O          -3.42139976612890   -2.15999189535625   -0.45704398387866
H          -2.65433598602551   -2.72053152578292   -0.73646184019085
H          -4.01675086682252   -2.73489108102543    0.02974220692661
O           0.84726849444771    3.22187078000210    0.78621480931069
H           0.34396539845448    2.51070904896888    1.20587262996405
H           0.78978597363006    3.04822417249046   -0.15915350691680
N           2.74751073579847    1.11687624747308    1.52873209279808
H           1.98266922845530    0.73041965270779    2.07216780004526
H           2.48467055258070    2.08030185847624    1.32836078943569
H           3.57719587139224    1.12870878274844    2.10808623113259
