    26
        -50.46509274  Gyration_radius:  2.52609840524 Dipole_moment: 3.453
 S           1.13252383309816    0.33978325375381    0.62644686321724
O          -0.01409526339033    0.26570976015817    1.50562517569544
O           0.86298558517193    1.17786819568074   -0.54168406134604
O           1.58379742034498   -0.98760400674514    0.19881949544096
O           2.28784033254516    1.00156384460920    1.43797682076342
H           3.10512717747141    0.76771901594396    0.94901167381283
H          -2.21377187641561   -1.77393031793258    0.13107846495480
O          -1.25058881358477   -2.10938844288254    1.54801056921101
H          -1.72521603031125   -2.12796634868361    2.38111110340726
H          -0.69703601488272   -1.30228872036614    1.57617098326082
O          -2.45980853433027    1.06868207580626    0.56355752144912
H          -2.21253072760982    1.78950252086302   -0.04384516874762
H          -1.64531652540305    0.86481665628744    1.05501010840887
O           4.09053925024630   -0.27628794511283   -0.00708335723458
H           4.67125598830560   -0.84870750182558    0.49936436314945
H           3.23560405143301   -0.74849679222285   -0.09099611544060
O          -1.14349640012947    2.88398243378190   -0.99388623350022
H          -0.34527401122508    2.33683825906023   -0.85462033202490
H          -0.94443606058527    3.74603491574636   -0.62569050055556
O          -2.51561775241951   -1.25186664268624   -0.64414921574795
H          -1.26228796548634   -1.07472799113944   -1.33894366961935
H          -2.68700483588218   -0.34902242759450   -0.26009020416508
N          -0.22459869280067   -0.90622811756631   -1.72125504896618
H           0.44665652855285   -1.36985843163174   -1.07646133619705
H           0.03429091289470    0.09478662365181   -1.59129453210851
H          -0.10954156555638   -1.21091387897838   -2.68218337709430
