    26
        -50.46126185  Gyration_radius:  2.41172490877 Dipole_moment: 6.055
 S           0.05510754129261   -0.71404497159343   -0.51937625273060
O          -1.16121660071120   -0.58590243756098   -1.43702006367081
O          -0.09453076858248   -1.91768852715332    0.30739211228534
O           1.23743795482817   -0.77088627047321   -1.36072992416601
O           0.11772128329761    0.45613054393491    0.37655660135368
O           0.34925560784706    1.49399373536064   -2.65618086347121
H           0.78529359509895    0.73593524082495   -2.23609328597028
H          -0.32748953308143    1.11171371657815   -3.21966619686459
O           3.39627384855521   -0.81914588682803    0.14042799625463
H           3.91167188227388   -0.05888926609110   -0.13677812871836
H           2.66014555826773   -0.89270624049881   -0.51534184439028
O          -2.19801608026937   -1.00066125471350    1.66847798544280
H          -1.44306912609313   -1.38738642894971    1.18125001026878
H          -2.90419888557570   -1.64852676532706    1.61939423129931
O          -1.00729218010831    2.71238238766950   -0.52157344267422
H          -0.48202488491921    2.06870141253280   -0.01617831380247
H          -0.63974814765676    2.63542336809431   -1.41603532738952
O          -2.85667245553421    0.82603213600355   -0.27024408941456
H          -2.71702077144333    0.44151804474998    0.61553454202594
H          -2.34497947486003    1.67364881831299   -0.31143677718012
H          -1.93148835568201   -0.01836865828153   -0.99755584855683
N           1.54518649589724   -0.87177772536541    2.00436352789414
H           1.61893147469924   -0.88334730391721    3.01597926215788
H           2.46698831082775   -0.86590889077623    1.48915558423833
H           0.98057029657018   -1.65922335183085    1.59974587644771
H           0.98316341506150   -0.06101541468237    1.59593262934275
