    26
        -50.46241472  Gyration_radius:  2.40583440943 Dipole_moment: 3.777
 S           0.86319759565215    0.34125915752951    1.44962306818744
O           0.36004895700225    1.36591350611546    0.54111243944328
O           2.25791437642029    0.06038582955912    1.25340637307268
O           0.03122286134742   -0.87611000066920    1.32465562046343
O           0.66101066418154    0.86151010021527    2.90523737060667
H          -0.30823720861290    0.87110962006239    3.00351647986032
H           0.20686212187119   -1.73392565300813    0.07785849874807
O          -1.91185003830993    0.14714023161843    2.71001669638291
H          -2.18093842179655   -0.42192222330732    3.43431874196732
H          -1.34258119606691   -0.39595097905003    2.12269632376864
O           0.40313340998092   -2.13207778461819   -0.83974861403332
H          -0.19951789420801   -1.54508025200758   -1.53192091696001
H           1.38945055140475   -1.83112893287436   -1.02037353111878
O           1.21903391358617    1.15195938190428   -1.90880731322952
H           0.91673368005121    1.28061165038871   -0.97296086130105
H           1.49829407755961    2.01511012906350   -2.21701228187876
O          -0.85982013275697   -0.58226981963360   -2.31101847895644
H          -1.50186068424268   -0.14088360343331   -1.67158610518465
H          -0.15753072968838    0.07843413288662   -2.44852544672202
O           2.65002914130337   -1.03663147844247   -1.10838682618125
H           2.38232589697782   -0.26011801839181   -1.63065279909459
H           2.71934377841562   -0.69864830792078   -0.18701784495568
N          -2.21513123169764    0.71005641072294   -0.46554799151584
H          -2.76922581568923    1.51300504949406   -0.73561539499515
H          -1.37106413698609    1.05806554498921   -0.00655266739567
H          -2.74084354557758    0.20018631897262    0.23328545114128
