    26
        -50.46983151  Gyration_radius:  2.38811590218 Dipole_moment: 4.147
 S          -0.75354653911118    0.90782255158781   -0.28300853917572
O          -1.97250316060426    0.28989459764727   -0.77252412000917
O          -0.15238187806528    1.86751552210320   -1.18625900005988
O           0.29222648893312   -0.29074786984082   -0.16521500600170
O          -0.87936464072255    1.41928072161666    1.07410398746805
H          -0.62091191385841    0.28529999531676    2.06098599349369
H           0.10845155068048   -0.86592647880475   -0.95916788898798
O           2.23193088096550   -0.37911408111608    1.81174386619094
H           2.16087975363399    0.54020810538405    1.46250045945723
H           2.34993020519669   -0.91903492848404    1.02648448501837
O          -0.62468240960292   -1.50098215346873   -2.25438714836612
H          -0.18973169363363   -0.96808046796769   -2.94378597384270
H          -1.42564283879406   -0.99658281873753   -2.03207287595767
O           0.42826559803558    0.64632114859100   -3.48388702435776
H           0.17828645233208    1.18119428407830   -2.70199557125162
H           1.16590516937502    1.10144513316187   -3.89218232987742
O          -1.90204290717423   -1.91689973255395    0.72494473014005
H          -2.10246956571733   -1.09337073886681    0.22859524718713
H          -1.60117951525262   -2.54311676549529    0.06141041982398
O           1.79795455215998    2.06222936005065    0.71532321115434
H           1.21910235270816    2.00634639257156   -0.06465764813174
H           1.27838786890666    2.55167600053209    1.35846081799620
N          -0.32129210223851   -0.64536489196030    2.49463883124395
H           0.72364346666864   -0.68180962263132    2.31095791615773
H          -0.84170302876620   -1.35328254300261    1.92765627132936
H          -0.54751215610714   -0.70492069973704    3.48133689940101
