    26
        -50.46212101  Gyration_radius:  2.4710568827 Dipole_moment: 4.584
 S          -0.72379550840052    0.87613684567066   -1.47957870312101
O          -1.82879147603144    1.73517523054634   -1.82456761700609
O          -1.14393702433833   -0.46312507712480   -1.08872302739064
O          -0.04297640635730    1.51094866583599   -0.16830028897890
O           0.37414876268383    0.84596624828658   -2.42722558309387
H           1.61641663766686    0.61853243981758   -1.59639271725001
H          -0.78628316468557    1.73221507369978    0.41303903609501
O          -1.83471990875679   -0.54503540005540    1.45604908920243
H          -1.64682935267573   -0.63481210360505    0.49797167399353
H          -2.31498175954586    0.28790036704042    1.52758739916236
O           0.30083199208942   -2.66008202648191   -1.05834931702348
H          -0.31854188795158   -3.31928398612934   -0.74068855244311
H          -0.22679036630923   -1.84035685192807   -1.18612746331554
O           0.63630401476164   -0.60219347284128    2.43050645125389
H          -0.28549960709915   -0.54929884084845    2.07664572983226
H           0.57692269102171   -1.11531348114147    3.23760186071654
O          -2.57176174630979    2.04858839601261    0.63314664753270
H          -2.97890958505290    2.90453001556389    0.77972408055128
H          -2.51008607314493    1.93722611803665   -0.34683490688132
O           2.16925746201342   -1.58598280662399    0.47965896155068
H           1.54345833747961   -2.11259186855922   -0.07159418776766
H           1.64161835772856   -1.25630934740818    1.24486865247263
N           2.42118485822265    0.57041552768441   -0.88589862536392
H           2.36037246187385   -0.38524178159186   -0.32621255006799
H           2.25516201311606    1.32818197601449   -0.22718722297046
H           3.31822628800336    0.67381014012776   -1.34911882967917
