    26
        -50.45088133  Gyration_radius:  2.63446658994 Dipole_moment: 7.377
 S          -0.15362250538825   -0.60008513270313    0.80061054457126
O           0.81710311481510   -1.60439988326160    0.49552598246993
O          -0.96152650897152   -0.19030220767040   -0.32462403136002
O           0.53025250700932    0.64370501399139    1.40620901546197
O          -1.04599154575678   -1.08022897635649    1.93644432808777
H          -1.71489193005084   -0.34289882557210    2.17106374553781
H           1.25140587464341    0.97148873765898    0.77698152904919
O          -2.80503829244269    0.67234942704552    2.44080230082390
H          -3.52962964645447    0.23145855266205    2.89030382971647
H          -3.13272986681795    0.91541155189423    1.52107629396088
O           3.54529174737288   -1.12579891421724    0.02452152417089
H           2.73008761739196   -1.43684697230378    0.44167269868512
H           3.45094001094870   -0.16881042321439   -0.03976832221749
O           2.25291491345887    1.40570220167988   -0.31416816219342
H           1.78776738741946    1.04560214918513   -1.14481951763891
H           2.30218778798846    2.35786800895673   -0.41809794424043
O           1.99997162002369   -2.04185702959393   -2.05945090761857
H           2.82326932123945   -1.82640854771906   -1.58507078796908
H           1.39949657875436   -2.32475154445815   -1.35924888456467
O           0.89715273677987    0.37182323797050   -2.21410085869073
H           1.32330066358774   -0.50743548620599   -2.36563369135609
H           0.09248127523103    0.17603976631869   -1.70547201509735
N          -3.48665339366307    1.11101449798999   -0.07015524787368
H          -3.48010104733633    2.06074759814463   -0.41981514009629
H          -4.26563540411359    0.62796081504915   -0.49985178537410
H          -2.62780300567985    0.65865238470302   -0.38493449628929
