    26
        -50.45887411  Gyration_radius:  2.46632479869 Dipole_moment: 1.919
 S           0.33918117709278   -0.76880371765774   -0.42996387083123
O           0.86649777365039   -1.40506023958139    0.76069138644871
O           1.29565767433869    0.11451654338004   -1.08335425933428
O          -0.90284494394462   -0.03504220145269   -0.12037776108712
O          -0.00539208924312   -1.85099932100803   -1.47772499438929
H          -0.62621470868309   -2.50898483346924   -1.05520186895405
H          -1.00031724823152    1.34484684624879   -0.55828663753005
O          -1.51453919401004   -3.52469444231182   -0.19353631942414
H          -1.67501529312785   -3.00565181973284    0.63381734646270
H          -0.98263262095672   -4.28180631889961    0.06097793811915
O          -0.83570534557568    2.31959516997291   -0.90622238044218
H          -0.56327906980826    2.15854281295513   -1.86636587042890
H           0.10796340557605    2.54747739276197   -0.40052530806271
O           0.23918680989127    1.45611894996644   -3.06970159445510
H           0.67657678546371    0.80502327258886   -2.47176411365649
H           0.94030041394859    1.90133649692834   -3.54938988935139
O          -1.50500804719652   -1.83722884389690    1.84155956327592
H          -0.54456628182719   -1.76092808175171    1.67235253048991
H          -1.87270627179281   -1.07147737194923    1.38380765854476
O           1.38725348172244    2.45307775244868    0.16771319436974
H           1.23195208278987    2.09002535225166    1.09055502750003
H           1.66990029497909    1.65769757892244   -0.32960878584408
N           0.87485160462632    1.01539520074858    2.30788164771323
H           0.97494031174583    0.12128890907967    1.82620799818705
H          -0.07347601355252    1.06056171899166    2.66013795275633
H           1.49743531212577    1.00517319447187    3.10632140992265
