    26
        -50.46305566  Gyration_radius:  2.55355809016 Dipole_moment: 5.314
 S          -0.41126077679420    1.04992604259482    0.32958122936966
O           0.69545549996282    1.55985103781304   -0.48575556535225
O           0.03213675775848    0.69131509617716    1.66856736540426
O          -1.07861635231223   -0.06125059349036   -0.33986910337475
O          -1.42858830126308    2.21507215399723    0.44447665375436
H          -2.27756106869083    1.75034544075529    0.69964039262349
H          -0.49588117023350   -1.32597845788998   -1.28640461964224
O          -1.95678498763282   -0.07624694171812    3.24008632562525
H          -1.91253232141934    0.48322836029634    4.01729164953347
H          -1.15290827051785    0.12702948099391    2.71461117352406
O           2.23424058217206   -2.20582446665604   -0.42921206624537
H           2.24581650106503   -2.92033438652227    0.20925389092726
H           2.38009097725020   -1.37961377712742    0.09176349565349
O           0.08105962084220   -1.80151280991657   -1.92573228493025
H           0.85773256641343   -2.10169223003464   -1.39599151441920
H           0.58872796812295   -0.59348286900610   -2.54212526054360
O          -3.32053925192010    0.58276400920478    1.02446467488382
H          -3.05600449253306    0.28762380941748    1.92153473176123
H          -2.83990864151356   -0.00019283967293    0.41795471272921
O           2.49760222848689    0.03355237115848    0.98530726309604
H           1.63028123537749    0.18782880053453    1.41131390899767
H           2.60312243214498    0.80022547551692    0.41498773223517
N           0.94929606963772    0.43543001475032   -2.78238601161972
H           0.83809980969920    0.96681000334825   -1.84356139941384
H           0.37296275526457    0.86999840543391   -3.49495156970299
H           1.92396063065669    0.42512884006276   -3.06484578487452
