    26
        -50.45617905  Gyration_radius:  2.50854262329 Dipole_moment: 0.802
 S          -0.16625603414204   -1.27111557114076    0.86579203459519
O           0.15632935645890   -1.35661181427056   -0.54516170956182
O          -1.45971446960143   -1.78925566572933    1.19552583683911
O          -0.04968951523745    0.19666505880242    1.30637837270814
O           0.89500204728903   -1.97488418114574    1.68950697006776
H           1.79826166841337   -1.47949680065213    1.57256514599517
H          -0.85582738531261    0.74898399642024    0.93451172095313
O          -3.74816651415199   -0.49740272671358    0.78807889744443
H          -4.26705952313671   -0.55652489789736    1.59213857176574
H          -2.99371951650491   -1.10962123911024    0.90655805574060
O          -1.15206036601163    0.40093205307079   -2.04913602660337
H          -1.76671873123661   -0.06526442502216   -2.61859110752180
H          -0.63251285430768   -0.28901295013375   -1.58321656413965
O           3.09080129159013   -0.82570978626669    1.30004192388810
H           2.99502409306605   -0.55696905950408    0.32713406268312
H           3.79218694243401   -1.48021134963748    1.33314998914915
O           2.58107167394776   -0.30255717053765   -1.15629093807445
H           1.75740428634244   -0.81838258930997   -1.15135841059775
H           2.27263469700793    0.63576109494139   -1.18289328251672
O          -1.97821233813680    1.41760409929487    0.28167889307708
H          -1.77898291801281    1.23446031459300   -0.66147748021519
H          -2.75947353579928    0.85603003477455    0.49195395560823
N           1.27055385514719    2.04761805690848   -0.96364874612466
H           0.97306543305458    1.97084733785532    0.00225213063084
H           0.46247405604025    1.86217886603154   -1.54717424790324
H           1.56358432082012    3.00193929437287   -1.12831805791880
