    26
        -50.45617911  Gyration_radius:  2.50824653999 Dipole_moment: 0.810
 S           0.91210810007092    0.54669825984422    1.12551061208667
O           1.88051174638212    1.57178161789014    0.87725699600469
O           1.20287401935415   -0.70719197874827    0.45811920143275
O          -0.48682813878440    1.01660578085269    0.69666621513098
O           0.76999512968693    0.32464121123986    2.61910422381981
H          -0.04780947808332   -0.28804675158143    2.79403386070384
H          -0.46207287492929    1.36910717855332   -0.28730654369297
O          -0.67962812272731   -2.61434426946914    0.88803102503649
H          -1.30866726975819   -2.28198129721709    0.20233072871989
H           0.14590642068082   -2.13844691355292    0.69705183184834
O          -0.30753004753781    1.74673000674020   -1.68973214507022
H           0.48273260421763    2.33432290756060   -1.70359928916301
H          -0.00123887795001    0.89876553278451   -2.07710308918796
O           0.76097558314091   -0.65796713068586   -2.16212530712236
H           1.59687655935738   -0.73290792377869   -2.62587272129278
H           0.96471431834790   -0.77195275256810   -1.20896131098908
O          -1.14400799101656   -1.25031673892374    3.00729752915995
H          -0.94470804445993   -1.79597755527455    3.77144241350781
H          -1.06227828586373   -1.85237336622098    2.19571037295067
O           2.01260196029104    2.99819596399184   -1.36313645630473
H           2.12824443403070    2.48762029357018   -0.53607475521048
H           2.10254165906693    3.92128896494400   -1.12019433180012
N          -2.06706303571591   -1.23317494857582   -0.96790076632275
H          -2.96266717190755   -1.40214164923097   -1.40723347607441
H          -1.37028542982412   -1.14517110477479   -1.69907777920633
H          -2.11529777614476   -0.34376336736643   -0.48423704899653
