    26
        -50.45412350  Gyration_radius:  2.46245201337 Dipole_moment: 6.304
 S          -1.38353753343962    1.01749362589925   -0.41032107681328
O          -0.52412054321905    0.76166751333599    0.73458490936666
O          -2.63549986702292    0.33232619376271   -0.34118960744907
O          -0.61437976148644    0.66462066276118   -1.68417691352383
O          -1.60833951665015    2.51862354553944   -0.53966524470137
H          -0.68448846160403    2.95316482660397   -0.58668290765230
H          -0.30953347818426   -0.34222550793531   -1.67145729054682
O          -0.57715120965202   -1.42814482210727    2.15823299410979
H          -0.61516924808978   -0.57114618259555    1.66964690241729
H          -0.74210434559898   -1.21984296736168    3.07899072749238
O          -2.05689405631381   -2.30152028294952   -0.06536753873476
H          -1.69567378973563   -2.25614785306380    0.83149524674118
H          -2.50586910920103   -1.44961214604957   -0.20549743591110
O           0.07805315878904   -1.71963633424555   -1.48956566421033
H           0.76416895713646   -1.76993235784446   -0.78886784040426
H          -0.74077972454333   -2.10486738496534   -1.08279265137141
O           1.66539324150623   -1.97282758245751    0.68743787813207
H           1.93009679245641   -2.88832518180641    0.79418580563574
H           0.94059878013414   -1.81731375281845    1.32241935916238
O           0.74653637244037    3.47065088385812   -0.51219351379389
H           0.87217189373265    3.83644099068270    0.36635537668167
H           1.32856554298461    2.65254490309151   -0.56275426326708
N           2.06228719533425    1.18050792096141   -0.44758495578438
H           1.33054868880560    0.77001556181384    0.12736943492867
H           2.95547752070811    0.95322148606066   -0.02931591221585
H           2.01964251142338    0.73026424286958   -1.35328580780802
