    26
        -50.45356127  Gyration_radius:  2.46005452513 Dipole_moment: 2.280
 S          -0.99239330336272    1.03098568886890    1.29816865059403
O          -1.14534740617492    0.01732590313808    0.28287252299647
O          -1.74961393343347    2.21964233283922    1.10863411065674
O           0.50518829792513    1.40927299383813    1.39709202242964
O          -1.32901870036027    0.41305262714648    2.66198269040452
H          -0.99800005647977   -0.54595875759799    2.66053701696790
H           1.11029193052909    0.73496487460338    0.95498417181980
O          -0.76151673538856   -1.51991978776775   -1.81321067019744
H          -1.59401015695892   -1.74276704351818   -2.23150929856158
H          -0.97581754738187   -0.92255763931624   -1.06707117778156
O           1.19689717544895    0.42201443725276   -2.15567884200520
H           0.64277407015764    1.21931373679924   -1.95550474017879
H           0.57053681835610   -0.30615181416879   -2.29134247917035
O           0.75640849517036   -2.55488431901284    0.32406987910513
H           0.22047943723870   -2.40898582170926   -0.47036684715355
H           1.40737031664654   -1.83712497516794    0.32061817646818
O          -0.55201008478587   -2.01199096439903    2.54156246302661
H          -0.04635403813378   -2.22720385357194    1.70936424024719
H          -1.32468157057447   -2.58019355666390    2.53783731868310
O           2.11839108049884   -0.15293476955080    0.15581939007548
H           1.81260405936359    0.06124019474191   -0.79333283166313
H           3.00628009269705    0.19804942379359    0.24332180897408
N          -0.32078648173859    2.54865748153689   -1.44691402705250
H          -0.86022310172639    2.32844120290959   -0.61375023629195
H          -0.97294158490025    2.87541547773306   -2.15046282038506
H           0.27549292736215    3.33229693724583   -1.20772050200467
