    26
        -50.47428058  Gyration_radius:  2.41359691693 Dipole_moment: 4.502
 S           0.72866872384722    0.13165377094438    0.92245541077245
O           1.11088917342522   -0.67691111787764   -0.24598591553899
O           0.00860129282381   -0.66969253648391    1.89102304962973
O          -0.04536181265357    1.29516132871212    0.48323143348964
O           2.02621095793826    0.63311167628855    1.59725034149122
H           2.24874304408327    1.49779407759608    1.14299098791951
H          -1.58591302411148    1.03012234329852    1.10270022018109
O          -0.61328262337083   -2.79307712541340    0.50988029106429
H          -0.36299466970752   -2.12346973057192    1.18962564095311
H           0.11472183550543   -2.75166066813257   -0.11869711341653
O          -0.76736548423450    0.06067968910485   -1.94655176217597
H          -0.79766933026242    0.99572362221483   -1.72262825392135
H           0.00083590465171   -0.27800490086842   -1.43295294731483
O           2.20543504598290    2.73166303023885    0.12885393754166
H           2.53106437036219    2.26240663257100   -0.66625525186668
H           1.24044486099903    2.64291052888048    0.10794321631986
O          -2.36807668506825    0.57220988009955    1.48555476100168
H          -2.62553943660074   -0.52133985194945    0.35318744101113
H          -1.98191113829127    0.07773214409757    2.21860443055610
O           2.80007275172699    0.81237074157144   -1.65544069823209
H           3.66532085474899    0.40033696723840   -1.66503353794375
H           2.20423294653098    0.19070870360703   -1.18636508572111
N          -2.50942482922255   -1.22325616883357   -0.44026204847824
H          -1.87345394039002   -1.99627192426222   -0.08144696561990
H          -1.95693868053784   -0.72353541338061   -1.19431228744893
H          -3.39731013810159   -1.57736568878810   -0.77736929423874
