    26
        -50.46654606  Gyration_radius:  2.46629782852 Dipole_moment: 4.963
 S          -0.30978428184264   -0.77931437599550    1.09781176348887
O           1.08293498573142   -0.77208237692748    0.62904840609101
O          -1.20191536027824   -1.39143548755991    0.15277234572218
O          -0.69701073386338    0.59415149801446    1.44268844708498
O          -0.34880299398451   -1.62585704116113    2.40689026239187
H           0.10726698118591   -1.06730758156593    3.06690717708994
H          -1.94928333687599    0.97188065335975    0.32195819556647
O           2.06619104395891   -1.83964708365914   -1.62432249757586
H           2.25711248444193   -2.77146754854431   -1.50759285831681
H           1.78299955096630   -1.50692054087819   -0.75050445427168
O          -2.53751871828198    1.03886209451223   -0.45325629229708
H          -1.45513993428675    1.40567138879500   -1.71825889457520
H          -2.81558306844087    0.13243318613968   -0.61667606831240
O          -0.63545632121469    1.36788395356450   -2.26937175354006
H          -0.56804775592693    0.40436083938599   -2.52730548000701
H           0.38456959091351    1.53229043463844   -1.32202694932517
O           0.49874669516611    0.49503697747809    3.75779590965640
H          -0.07647004506231    0.75762577443960    4.47993365286228
H           0.05812825145495    0.78018399886221    2.92978440369046
O          -0.46471135170869   -1.22098232096868   -2.45554542267470
H          -0.83258897391526   -1.41210209863044   -1.57357857522393
H           0.47449307876693   -1.47448513626283   -2.39687915452701
N           1.14258458371904    1.60189568328513   -0.47182331651370
H           1.21811230210826    0.63758165674025   -0.03921330814086
H           0.77124524273357    2.22177200001441    0.24330581117438
H           2.04792809453597    1.91997146293236   -0.80254134952768
