    26
        -50.46642556  Gyration_radius:  2.62534220443 Dipole_moment: 5.437
 S          -0.29498728952867   -0.53508976915325   -1.00088794644221
O           0.44321785068655   -1.37203531581708   -0.04252448159871
O           0.60671062355826    0.36207144290640   -1.69644398558749
O          -1.37412231629118    0.17626281005321   -0.32200456836829
O          -0.93463740768718   -1.51224514567747   -2.02128482369548
H          -1.69471072834900   -0.98515081472364   -2.40751856131088
H          -1.05257721308631    1.03735947292783    1.07187943655086
O          -0.63213086399801    1.31637231273653    1.91922239682251
H           0.27630799048981    1.54597757376350    1.67304336834718
H          -0.42356062007057   -0.14195193692212    2.46638983911201
O          -0.68090019356209    1.70119167756488   -3.56782009983828
H          -0.24337046070435    1.47642488583277   -4.39073151724624
H          -0.14085518766960    1.29209745307184   -2.85457854068901
O          -2.72209463572647    0.21206078751964   -2.66653630286967
H          -2.15909007930659    0.86048871400252   -3.14147324563823
H          -2.65429980068569    0.45991933455887   -1.73232665909552
O           1.87336565111153    0.74159527991498    0.76090987232725
H           2.10871962314256    1.27675501600094   -0.00137408509798
H           1.42478546027236   -0.03610254165320    0.37034624254369
O           2.54762587382647   -0.79942191219115    2.91848299949319
H           3.13741043419410   -1.46496553203400    2.55910817050240
H           2.49518462813487   -0.09604555061165    2.24581785691342
N          -0.08433252117415   -1.16053010669921    2.49885615187453
H           0.88388387876834   -1.16017681183828    2.89157897203465
H           0.01097692758817   -1.41948847275523    1.47250361680571
H          -0.71651958390500   -1.77537285083490    2.99736590417165
