    26
        -50.46071789  Gyration_radius:  2.47364103086 Dipole_moment: 6.616
 S           0.51121763382263    1.10281646991616   -0.80043819286536
O           1.10278885965448    0.85508578914756   -2.08625190996650
O           1.06511639437243    0.26308515660638    0.25864203381827
O          -1.03311138134928    0.73977604600053   -0.87227795756730
O           0.48970490776239    2.50837798012641   -0.39646559453227
H          -0.53128770296612    2.50472634396516    0.58656180449614
H          -1.11149401897446   -0.23476423914638   -1.05446889654012
O          -0.55622685561544   -1.46063191868124    1.43514802889047
H          -1.02067910825059   -1.85186770260006    0.68693776117962
H           0.15172125526670   -0.91744679796596    1.02943582581044
O          -1.20165768116313   -1.82261420622617   -1.30545748028890
H          -1.84306204303268   -2.06536985569252   -1.97536932887639
H          -0.29557376902016   -1.93112095471981   -1.74296327590088
O           1.08959040642199   -1.77722637961300   -2.45798229824066
H           1.12879967987054   -0.80152062429876   -2.53667064186405
H           1.79905301117516   -1.98229785140189   -1.81706832671535
O          -1.01660779796634    0.52951725937472    3.06068639801971
H          -0.98617515964593   -0.29689508779642    2.50990349691355
H          -0.16057847336835    0.56482501045561    3.49298553832727
O           2.94714285080794   -1.48660983368221   -0.51713864677762
H           2.30928228355188   -0.85019001101204   -0.13676456196089
H           3.65580581516319   -0.95727704105942   -0.88686396459101
N          -1.42151913309675    2.39302906773146    1.24372594289084
H          -1.70638804601392    3.28448749686366    1.63767101926572
H          -1.22277229599124    1.67581164307280    2.01200033018148
H          -2.14308963142237    2.01429424063516    0.63248288688532
