    26
        -50.45764991  Gyration_radius:  2.48428749588 Dipole_moment: 3.102
 S           0.19136938565076    0.27765919419092    2.13997140947339
O          -1.15360949409739    0.73609257821314    2.43319978905689
O           0.70756089069498    0.85285982981039    0.90459582120853
O           0.30750964430690   -1.16751288307449    2.16072292758106
O           1.13768354699810    0.80707065551974    3.29084034727069
H           0.96723478076203    0.15715361529959    3.96352083604365
H          -0.64325204486037   -2.00484254468154    1.12088667512492
O          -0.05355678258663   -1.41856296075974   -1.62029409050691
H          -0.46602553359676   -0.47974579136729   -1.60679958948660
H           0.94957286868196   -1.22254819660871   -1.27675035325954
O          -2.79785280257357   -0.02711410982395    0.60641776104741
H          -3.69660208279992    0.12142904220864    0.90403408809305
H          -2.20814984279311    0.29330169352818    1.34306714345315
O          -0.94150195665182    0.92778163026416   -1.15103631179773
H          -0.32303446945228    1.06377099485840   -0.39508353109172
H          -1.79855571589417    0.75014017486495   -0.72735280997354
O          -1.25960764027900   -2.27717510171582    0.39719309130349
H          -2.00182266597547   -1.64767586073981    0.45170810278741
H          -0.54423415366629   -1.91081644313509   -0.82618855502527
O           2.13124173156326   -0.63524060123579   -0.74125294206983
H           1.75759602174424   -0.17204646442003    0.04094415740186
H           2.27817367852660    0.09487466051527   -1.39575428452675
N           1.94308171231465    1.48668595577488   -2.38784555411741
H           0.93915571533366    1.61470342239909   -2.32182920583121
H           2.19781316896898    1.49741634356737   -3.36715321490562
H           2.37981202973637    2.28234116668046   -1.93976170724771
