    26
        -50.44257658  Gyration_radius:  2.47666536228 Dipole_moment: 6.237
 S          -0.87068495090452    0.86485269854045    0.07021526135121
O          -1.05016698973475   -0.00209205675105   -1.08445014054809
O          -0.61366613107822    2.21717556057247   -0.28305370514718
O           0.25670802345895    0.27116387701631    0.93743514471727
O          -2.08402406096633    0.72784796909056    0.98201763003584
H          -2.07877136466454   -0.22949258006200    1.34143915081544
H           1.18851527590497    0.39808085313040    0.53013948285351
O          -1.99199068481517   -1.70269559359457    1.71929017179738
H          -2.84005855769131   -2.13529493757943    1.59200295175520
H          -1.37256582177744   -2.10726242249853    1.06055672852764
O           2.47088115676027    0.46837589764435   -0.27370685726414
H           2.11933756730916    0.79992791834147   -1.12667162241665
H           2.68785998788526   -0.45968214669700   -0.43736145730398
O           0.99586741058466    0.88268037994866   -2.49124657726062
H           0.15733426162011    0.57276374329536   -2.09017388009502
H           0.85564551336807    1.81437325462186   -2.67439813612939
O          -0.56280382371763   -2.50311641547461   -0.35088665326112
H           0.39511727022865   -2.53674622213713   -0.46171348619443
H          -0.82727426580558   -1.66426365434289   -0.77483580189731
O           1.89643147497926   -1.84290428182002   -1.71085106185190
H           2.13490095192003   -2.54039573860177   -2.32432458217525
H           1.52560917647415   -1.12327744322335   -2.23746733530657
N          -0.51275873720489    2.66720713631756    2.69730817467644
H          -1.47745708301324    2.40303052441486    2.85923646940916
H           0.04458699105267    1.82882105809623    2.81064863348180
H          -0.44657257016998    2.93092264175920    1.72085150743454
