    26
        -50.45060059  Gyration_radius:  2.5305000383 Dipole_moment: 4.287
 S          -0.71937247936925   -1.35884175740445    0.29039195741804
O          -1.70947008594618   -0.44693060571915    0.79348966192511
O           0.57542718770593   -1.23231644493014    0.93791383190524
O          -0.56640564341900   -1.21235959182561   -1.18138075937960
O          -1.18767658521979   -2.82644057650861    0.52893177155663
H          -1.99354384987614   -2.87212731662186   -0.01869766173587
H           0.34762226851264   -0.22285366989886   -1.69612879107201
O          -2.86702230855430   -2.47582470408875   -1.48274462767042
H          -2.12663728315203   -1.85117985975660   -1.59601910357618
H          -2.81863001976281   -3.09824546649915   -2.21215231394393
O          -0.01052917714329    2.63238835447679   -1.23378334035704
H          -0.77654889875046    2.85308794490651   -1.76688747368238
H          -0.36899838731194    2.46215810456533   -0.28386672518662
O           1.05213424164133    0.50581955629547   -1.95909256747465
H           1.82621873050807    0.32249637041622   -1.32072051302195
H           0.62135459788527    1.44811692433010   -1.67413930837797
O          -0.94640480988916    2.09254099850185    1.05582453002821
H          -1.36717781083004    1.21152247433816    0.98023175368304
H          -0.19081893551156    1.94421345092321    1.67208417793501
O           2.70506634814006   -0.24132535755798   -0.16659885600829
H           1.94680205917332   -0.63506671939658    0.33886878726008
H           3.28252339518628   -0.97230592434241   -0.39449959423512
N           1.14141265135937    1.17839433456213    2.50748312347591
H           2.07573853910345    1.39729815683897    2.18464535829550
H           0.91761862047874    0.24155885792378    2.17794700906259
H           1.15731763505578    1.15622245643773    3.51889967316134
