    26
        -50.46224283  Gyration_radius:  2.48591321104 Dipole_moment: 2.500
 S           0.17661807740950    1.06930949446635    0.42772025505682
O          -1.19004382372374    0.90190045722957   -0.05279118524281
O           1.14587851989544    0.73922831403302   -0.61067832165406
O           0.40845362977719    0.25767612860583    1.63517178385155
O           0.37133190976511    2.55204210927628    0.81060114026164
H           0.60773974758187    2.58802088872919    1.78989857959024
H           0.24651641115501   -1.18365676923343    1.37743368844813
O           0.08663548018657   -2.13299281076799    0.98464858783406
H          -0.86754788626042   -2.04450374398556    0.53752732691617
H           0.74005790971629   -2.15625596579608    0.15354553197026
O          -0.76280484909099   -1.64585279817498   -2.71368900040150
H          -0.99337009768260   -1.96352436497949   -3.58717276791546
H          -0.70902870732056   -0.64895194059808   -2.77882404852657
O           1.43566532026402   -1.82358091768996   -1.09784499147107
H           0.76575351910753   -1.92484249877662   -1.80057748476461
H           1.51859840086427   -0.84932905721366   -0.96438167366410
O          -2.00142510924404   -1.58426489821322   -0.27684214370217
H          -1.73918216830461   -1.75044878523508   -1.20229005749121
H          -1.88676229787134   -0.61222064198680   -0.15091696432031
O          -0.56233361883417    0.96029279465566   -2.63466868033641
H          -1.14547587129847    1.13462086425047   -1.87627706343652
H           0.31679288481767    1.03269621534420   -2.22539243707526
N           0.96318432429396    2.38437582556304    3.33720354523169
H           0.30377121798439    2.71716630476622    4.02747237389239
H           1.89984403512928    2.60630395161775    3.64616497083614
H           0.87113305168397    1.37679182411325    3.24495904611585
