    26
        -50.45268486  Gyration_radius:  2.5720229995 Dipole_moment: 2.982
 S           1.22510955778980    0.24245512380284    0.20252197096041
O           0.34015946850012    0.94256639879767    1.11603460531966
O           1.55046647386215    1.02482971813856   -0.97698542175939
O           0.65071851220401   -1.06232823855674   -0.18335952118431
O           2.53265863109887   -0.06849832854665    0.98122465023434
H           3.09091295008849   -0.51916871609830    0.29224217506277
H          -0.67055753997629   -1.07305785312895   -0.57519552617851
O          -2.77026732212697   -1.50063347209632    1.44957633144627
H          -2.73881492163765   -2.43819451985509    1.64966911495908
H          -2.11289243695101   -1.06900620214729    2.06083959058433
O          -1.72031004740559   -1.05758205799714   -0.82685750642450
H          -2.21154574038602   -1.22389516808458    0.06276644862739
H          -1.95122063030779   -0.10352718914222   -1.13661146392239
O          -2.23029775719544    1.30441582707267   -1.61886186934596
H          -1.55412678248326    1.94708725963342   -1.25311818553500
H          -2.19108281805616    1.39528100624610   -2.57257223511242
O          -0.92365118066412   -0.41476946982049    2.95013328705974
H          -1.17638017800669    0.25799132557253    3.58514943603211
H          -0.37078490348737    0.05063633513778    2.27654055506260
O          -0.33559732717717    2.84421799026775   -0.71745080525825
H          -0.36475334607945    2.70900273335888    0.23698502383195
H           0.44244284249750    2.31015147158957   -0.98513116787235
N           3.43020848103305   -1.08363566107506   -1.24790319717191
H           2.93146596380451   -0.29005278100726   -1.64137531398590
H           2.83960457577529   -1.89746245375233   -1.36343141873722
H           4.28853549530787   -1.22682307832113   -1.76482954668761
