    26
        -50.46091557  Gyration_radius:  2.40406792044 Dipole_moment: 3.015
 S          -0.37713154480020   -0.22286159267758    1.16632014418370
O          -0.64722287766914    1.19939683673518    1.25603446465250
O           0.79303436777519   -0.49514339724364    0.32675763207121
O          -1.53064004497860   -0.96400178640740    0.63615707673974
O          -0.08145820811324   -0.74118352253445    2.58747797481057
H           0.06196549540888   -1.71894680844038    2.41847104825174
H          -1.84649213072206   -0.64183707049462   -0.76437155077319
O           0.53723236931819   -1.14936862556531   -2.20547783578503
H           1.07997422067644   -0.47347946873316   -2.62387743814694
H           0.72370224535204   -1.06446229771054   -1.24080490745510
O          -1.82857566016913   -0.31337615013157   -1.75363535673959
H          -1.61803356148129    0.74854501097090   -1.63358827605798
H          -0.95744576659723   -0.71440493899332   -2.11379947891071
O           1.46649357166508    1.57966779431391   -1.26062475192354
H           1.37564645913072    0.82751316696839   -0.64267622225967
H           1.74906133383267    2.30497239818190   -0.68423175919398
O           1.38499527105598    2.98327588567065    1.08467897271129
H           1.17408278940380    3.75635869222101    1.60956968094534
H           0.67962718508025    2.33327016439126    1.26285805957504
O          -1.12474334514449    2.00226065567754   -1.22918209432518
H          -1.14675445930246    1.91457799079878   -0.25262076640825
H          -0.15012556549437    1.98429666183388   -1.43374730258777
N           0.09886459662157   -3.11862647481836    1.57313659317972
H           0.91215632951497   -3.09040361089023    0.97188896961957
H          -0.71235678540101   -2.86655226496554    1.01795070385021
H          -0.01585627495316   -4.05948724812245    1.92733645999484
