    26
        -50.46076740  Gyration_radius:  2.58437065983 Dipole_moment: 4.705
 S          -0.53049793840356   -1.19888062789502   -0.56879272905590
O           0.85272466252323   -0.77880302881067   -0.76957306035285
O          -1.18744138009959   -1.57036452402672   -1.79469203397162
O          -1.28228134808398    0.04582292574400    0.04461425148623
O          -0.63668663202913   -2.20675005609610    0.48906832021947
H          -0.92671479751546   -1.54574502487962    1.70264633478451
H          -1.22494435062809    0.80527582388290   -0.63528166601792
O           2.11508753216998    0.34622558504913    1.24105112386778
H           1.67608040838727   -0.20164872940869    0.55149178173827
H           2.25684378564998    1.19898059983256    0.82197227451142
O          -1.00803415064895    1.90329644430512   -1.66203261900222
H          -1.09566612337956    1.41629472015041   -2.51129807523584
H          -0.04535166669003    2.06407737603504   -1.57896379866175
O           1.14401043411357   -0.18152970551730    3.61266210637763
H           1.71644534596038   -0.87960880758200    3.93613917677829
H           1.55262300356775    0.11858083031970    2.76022324087295
O           1.66591308595877    1.60063387314819   -1.59395523548165
H           1.97968666796618    1.55416856884456   -2.49880606875261
H           1.42911679166750    0.67793964941274   -1.35070929719766
O          -0.94266515657036    0.19307424642120   -3.70628121078194
H          -0.96594922807864   -0.54278986372315   -3.04825732533290
H          -1.65988033718588    0.01532844118954   -4.31672944117415
N          -1.17853733309636   -0.87366226835269    2.55320315637807
H          -0.28510211612171   -0.61831384124438    3.06528287427540
H          -1.86352638556770   -1.29351666953919    3.17247720220566
H          -1.55525277386215   -0.04808595725775    2.08454074752142
