    26
        -50.45119456  Gyration_radius:  2.46747482697 Dipole_moment: 3.658
 S          -0.82537094645348    0.87189828640589    0.90544864304202
O           0.57352058591025    0.56332519418782    0.67159019397948
O          -1.19429164108375    0.84201074361682    2.28422265750038
O          -1.68247344557836   -0.12453365532563    0.08734999561937
O          -1.17846014482056    2.20007383225899    0.27856799734894
H          -1.22398406493094    2.09375610747465   -0.76752516507653
H          -1.46846607086433   -1.07729583416497    0.32459077360520
O           0.95073840920622   -1.55080360925685   -0.98700698497538
H           0.30394916793425   -2.19879165242140   -0.69327191720441
H           0.91989038721598   -0.83149465976953   -0.33336386922430
O          -1.23815822559363    1.97264750766835   -2.20174852335368
H          -0.56439316483942    1.28087777988219   -2.50012539567257
H          -0.92542008049472    2.80793439016209   -2.55870347348238
O           0.69333050456637    0.39884672022772   -2.87495417230031
H           1.35659163709423    0.96919122523514   -2.44426156928476
H           0.72869862136331   -0.44038928370215   -2.37841257024734
O          -1.07180829085732   -2.51676128026069    0.82403260237267
H          -1.84963583130885   -2.96676963980700    1.15939403962645
H          -0.51122594684446   -2.25701503664581    1.62576660734595
O           2.05520040453357    1.95360343955120   -1.09799559888016
H           1.52700355394810    1.53181944983823   -0.39380796432219
H           2.97382537426691    1.81595998621496   -0.86181055840048
N           0.28928563577531   -1.51816333810709    2.81820072862420
H          -0.23219371542013   -0.64300885746549    2.87224638490103
H           1.21671301243960   -1.28010917067130    2.48826937123495
H           0.37713426483476   -1.89680865512795    3.75330776721894
