    26
        -50.45617888  Gyration_radius:  2.50825973773 Dipole_moment: 0.813
 S          -0.93562231797892    1.08586266982267    0.58456904284864
O           0.50359796156147    1.16762606588587    0.73976762165715
O          -1.63926906441061    0.88554188356469    1.81547922599479
O          -1.25781335677454   -0.04407547677275   -0.40598719012038
O          -1.45921671023913    2.32785879351969   -0.11081334392898
H          -1.07259006007545    2.36501873492387   -1.07197656668356
H          -1.10070400916821   -0.97393245155396    0.04548887608124
O          -0.75806021966153   -2.19870593094551    0.76344106121238
H          -1.20586917514886   -2.10921574572236    1.63605039703784
H           0.19329121663278   -2.04492540760089    0.94841299811077
O           1.66045974327094   -1.16943651365204    1.25262710440292
H           2.01017980242431   -1.16057576030367    2.14539395595986
H           1.32764082576995   -0.26273224023125    1.07903419425225
O          -0.42004837829285    2.45298174572463   -2.39085420064215
H           0.49893601399255    2.06893372928600   -2.20156289060432
H          -0.28682949826266    3.37558696161939   -2.61981158335281
O          -1.83194080204854   -1.44899493927279    3.07452093249327
H          -2.75144806071973   -1.58072030093713    3.31197900197416
H          -1.76199282546922   -0.52381897023831    2.76291586733094
O           1.81796484260242    1.47503075651904   -1.61460421554662
H           1.55851182588190    1.48210156068120   -0.67805235704419
H           1.80126254909861    0.51734149481264   -1.85750889454485
N           1.37784334567840   -1.17512041676880   -1.85898390985872
H           0.36476240071608   -1.16024094268542   -1.83203760279674
H           1.70206703615749   -1.50586846321697   -0.95714979764891
H           1.66488693440459   -1.84552083648012   -2.56033773660042
