    26
        -50.46564931  Gyration_radius:  2.44862890633 Dipole_moment: 6.107
 S           0.17008740011089    0.46034301981665    1.03027222656258
O          -1.01923094428566    0.88025344036882    0.11702231208956
O           0.22796096766378   -1.00066824854942    0.99703000792696
O           1.38631500564067    1.06220497018738    0.52704994077739
O          -0.22338823054503    0.95104767347120    2.35124982294543
O           1.07040232195709   -1.82258144204798   -1.40662767079625
H           1.97161637758560   -1.45898252079523   -1.42846518813485
H           0.78885876155201   -1.70938554948698   -0.47905774499319
O           1.68273321532914    1.85842626156769   -2.06931626890750
H           1.56896051495325    1.83999583166276   -1.10333748070078
H           2.47860863596924    1.34187832731471   -2.23201765592215
O           3.27798939214757   -0.29657204965359   -0.79478910663528
H           2.64412800853443    0.19385552021957   -0.23043398841155
H           3.96310955129899   -0.61984561200497   -0.20878927190572
O          -2.25115062539047   -1.69507644259339    0.75940125405348
H          -2.39589572023078   -1.62570800153912   -0.18777295714203
H          -1.27217338792703   -1.58687319916307    0.88273304134623
O          -0.40810851497598    0.20023620930719   -2.21018383931487
H          -0.80294226229480    0.61860133883344   -0.87024148037815
H           0.28036087920875    0.87638339060718   -2.40145909891542
H           0.09506898557048   -0.64406225063763   -2.06580609902063
N          -2.68699614221506    0.44046125870737    2.22347222378188
H          -3.16225995785987    0.29396374600276    3.10850084182574
H          -2.65878965207665   -0.44976796737260    1.63215256183594
H          -3.11595094931419    1.19170512459734    1.69073392715749
H          -1.60931364040158    0.70016716116107    2.36867971086298
