    26
        -50.45484230  Gyration_radius:  2.45712311128 Dipole_moment: 2.844
 S          -1.09453928502520   -1.47378462150392    0.34083104160532
O          -0.20872182638661   -1.10666340985664    1.42090697094929
O          -0.92081674474634   -2.80891981557998   -0.14550510314463
O          -0.91051691024661   -0.46740348148616   -0.81724723395587
O          -2.53684468633057   -1.23222055264343    0.75386466562132
H          -2.50364667284936   -0.31718511725487    1.22735220788749
H           0.08118885244352   -0.36736462098079   -1.08767998925615
O          -2.20672804433626    0.94696427974887    1.96576401940036
H          -1.82167852386806    0.65521803710278    2.79580176319302
H          -1.49830412091720    1.50882224096880    1.53057511712084
O          -0.22469056250985    2.31078512381703    0.95260714525503
H           0.59333351046331    1.82198673556723    1.11428828439106
H          -0.28944804271993    2.39640252319443   -0.02645360117455
O           1.88834254940789    0.43284115606532    1.21666875727007
H           2.57940534744880    0.15947880394307    1.82180836958560
H           1.12453767504589   -0.17088740578324    1.37512655415156
O           1.55251049474408   -0.30040724729448   -1.35709919809266
H           1.75943324873287   -1.26002213145735   -1.30868602583564
H           1.87309572720172    0.08051301216980   -0.51504111885858
O           1.62220362222001   -2.93143544105028   -0.94281755541584
H           0.71420127391454   -2.99858689867382   -0.58279288407775
H           1.68880168117831   -3.60715805603781   -1.62031634511205
N          -0.29835081682194    2.26937490140475   -1.77156416861182
H          -0.49603381206908    3.04601843246586   -2.38926268840920
H          -1.03237849042644    1.57916571440844   -1.87826337148434
H           0.56564455642040    1.83446782872644   -2.07286563297903
