    26
        -50.45617920  Gyration_radius:  2.50861983922 Dipole_moment: 0.800
 S           0.13535504857842    1.15043103888303    1.02337677756746
O           0.86826210437658    2.34234492879679    0.71917800469711
O           0.96099512620554   -0.03817970182133    1.11036104675961
O          -0.95807155116589    0.91136016048374   -0.02973817104632
O          -0.64571684545951    1.34120085038960    2.30955008354319
H          -1.29886096413267    0.54542052652879    2.42972573271653
H          -0.54625400318639    0.94574395108173   -0.99045846105425
O           1.81012859148094   -0.92120251935400   -1.24804841752748
H           1.55797795996480   -0.66849116753070   -0.33393282150129
H           2.76033260014563   -0.80613404105774   -1.30574913115241
O          -2.13570132935271   -0.65156814930857    2.63304407412095
H          -1.55706356675823   -1.38799819440201    2.24496192468280
H          -2.21113035189259   -0.83241103606707    3.57274942381219
O           1.73767523128592    2.99826520718596   -1.70685005937043
H           1.50442414062035    3.91441355462855   -1.86638070729422
H           1.55442588987618    2.83251241265021   -0.75976313548207
O          -0.45359915613978   -2.29810473924656    1.61899508198156
H          -0.73837776088661   -2.44273254162528    0.68398525647760
H           0.24428620940426   -1.62550654624008    1.54852738045731
O           0.16857699644601    0.92835974490272   -2.26334454893142
H           0.79173054361997    0.18511202270335   -2.11440342228606
H           0.72805259447942    1.73870890690176   -2.24653568800331
N          -1.05501439604537   -2.14541392002041   -1.00640303588813
H          -0.13192879937003   -2.01876226136927   -1.40613382287999
H          -1.51070843911336   -1.24007683167472   -0.99875851390975
H          -1.57979584298598   -2.75729165540596   -1.61795487048632
