    26
        -50.46278398  Gyration_radius:  2.44959124376 Dipole_moment: 5.388
 S          -1.15502246135504    0.05596745902761    0.32882538406818
O          -0.34407081403552   -0.02066625298588    1.53916990295477
O          -2.35556123649486   -0.73762189395343    0.42427599616653
O          -0.34569631706035   -0.32512561769304   -0.84729295466300
O          -1.50278340787843    1.56058669945777    0.17409467402554
H          -1.75430897632930    1.79806020395169   -0.77394327957967
H           0.43692311616797   -1.54586196980480   -0.45891058504524
O           2.19065515676189   -0.46037539176712    1.53134513972208
H           2.55267209700830   -0.34242123271885    2.41071344984523
H           1.22438077986254   -0.22804005194127    1.59530280889676
O          -1.84243644997599    2.36345226510953   -2.23468407698112
H          -1.88149235062160    3.32174457535140   -2.20189502824018
H          -0.91337642162222    2.12781456220362   -2.50473220782643
O           0.65764603714993    1.58765534502061   -2.46243135967650
H           1.08451774181044    2.01419950449494   -1.69814610512358
H           0.36468961774125    0.73297426044059   -2.10172782749123
O          -1.19799946993324   -2.74792772535075    1.60978172572301
H          -1.77339839682672   -2.09496647971433    1.13578317560123
H          -1.05646197955336   -2.34694545760977    2.47141652241544
O           1.32317146536564    2.05851600565065    0.16282968144394
H           1.87142469262628    1.33575727245814    0.48908173951388
H           0.42560142981964    1.87458879300296    0.46519242323856
N           0.91557465184884   -2.34355303757820    0.08838200246007
H           1.26636489067409   -3.07616862074474   -0.51863439771994
H           0.14336339606801   -2.67921499942213    0.73942822318106
H           1.66562321877338   -1.88242820487337    0.63677496307045
