    26
        -50.45309429  Gyration_radius:  2.49476858913 Dipole_moment: 1.471
 S          -1.13229051519135   -0.35999190526765   -0.19681561531076
O          -1.69775263866187   -0.80201042263056    1.04246435597298
O          -0.00038904981684   -1.14852809968425   -0.64239675866700
O          -0.71086662546247    1.10361862474651   -0.10445564555796
O          -2.20988951069601   -0.35357427674089   -1.27412818622598
H          -1.82218921083175    0.09009575233303   -2.11216515373042
H          -0.06340825719085    1.25990730087291    0.73021836693180
O           2.23481446960836    0.53868423720415   -0.78869512945802
H           1.50904231513981   -0.07287877967986   -0.60076873810782
H           2.14891274666634    1.25945538188014   -0.16142929322715
O          -1.17650545676701    0.63199384664529   -3.36390342403843
H          -1.61722616457585    0.28439176757837   -4.14277094089106
H          -0.26018810535932    0.23324486828357   -3.35560384179969
O           1.09551418092391   -0.62130873801100   -3.09657691059410
H           0.76220454999383   -1.11801045694210   -2.33146563701371
H           1.78499738132387   -0.05368912612053   -2.72505942307298
O          -1.53177830094591    0.80637670335619    3.19318327126506
H          -1.67029273340110    0.13003191905948    2.50173267080040
H          -2.33364163599650    1.33067523298586    3.21907383728921
O           0.74339526630893    1.31288674958874    1.89161809156886
H           0.03505284753594    1.36292272683862    2.56641101313156
H           1.08510521951868    0.37131565674683    1.97482875741841
N           1.23073575517496   -1.27707682150667    1.96959139817516
H           0.65949971064997   -1.66485345422523    2.70978688366067
H           2.14300568969418   -1.71376708466945    2.00996032460887
H           0.79413807235706   -1.52991161263784    1.08736571685839
