    26
        -50.45174160  Gyration_radius:  2.5699314528 Dipole_moment: 6.876
 S           0.95668861950291   -0.66968726455298   -0.93969002733780
O           1.75606692777993   -0.22856208758582    0.16199353392993
O           0.41387855251898    0.40640710006366   -1.74748225890028
O          -0.19919617655668   -1.54884340076257   -0.46496394383355
O           1.76857855177738   -1.61659614272422   -1.82589120674638
H           1.11119674604882   -1.83733885086129   -2.57827043275670
H          -0.98871836443206   -0.98875502603922   -0.00203016758794
O          -1.96295140604097   -0.16236482323563    0.59334747133639
H          -1.68816396366485    0.75291768499146    0.38975126520156
H          -1.82417445520429   -0.28244153407597    1.57206962136300
O           1.45575389786726    2.27823183411606    1.40849295600994
H           1.85687735131199    1.58452345797572    0.86741845755284
H           0.60134847325826    2.45477520482628    0.99237463101641
O          -0.83221788060072    2.16451624618005   -0.24725883548309
H          -0.31775737902607    1.59209925720974   -0.86270398733260
H          -1.22839149991038    2.85505482282759   -0.78179249395813
O           1.24637475386503    0.00570966503330    2.91646017112603
H           1.34709343704602    0.95171435418344    2.70071189739347
H           1.55054079827588   -0.43957602581882    2.11515220042919
O          -1.36033413569313   -0.33709547291072    3.13530105961174
H          -0.36987365036353   -0.29581239930046    3.11710485968138
H          -1.64383650519108    0.33876760087842    3.75272338953704
N          -0.18234033141130   -1.80513462935349   -3.47194623671068
H          -0.38934835135080   -0.82914240308558   -3.28607022934719
H          -0.90123107319134   -2.37442340621224   -3.04475745326378
H          -0.17586294664467   -1.96894375184075   -4.47004423080175
