    26
        -50.46252135  Gyration_radius:  2.40402553613 Dipole_moment: 3.487
 S           0.34000533727437    0.59600415598584    1.40010069918361
O           0.52694315777786   -0.69250139645470    0.71619902348673
O          -0.85914541185442    0.61863815794585    2.19484196139018
O           0.18457906194388    1.65676189904666    0.23298991505262
O           1.57781286846250    0.98377756477483    2.06045784102541
H           2.42630573471727    1.02073439962236    0.83729681570286
H          -0.80043951471111    1.76735296312019    0.07302097003629
O          -2.66138331284251   -0.79458077797931   -1.11619180715445
H          -2.38669109566738   -1.29024313009386   -0.30488827569189
H          -3.51212395604874   -1.15031726501882   -1.37630916448431
O          -2.36936226468641    1.58653641599861    0.16769022866694
H          -2.23542117751350    1.26908417542039    1.07509782646505
H          -2.56255488451084    0.79956254923557   -0.38232435580127
O          -1.81834093139824   -1.83554296888071    1.17707001006206
H          -0.88284699669930   -1.59472074308933    1.02336333073556
H          -2.07048306012473   -1.28406054076732    1.92450439335913
O           0.11990602308804   -0.44610801910927   -1.94201615791663
H          -0.81912347686393   -0.55506700910661   -2.12373752281880
H           0.17841782223765   -0.46171618772816   -0.97034550381435
O           2.51477071385599   -1.43644830954108   -0.99269574268881
H           1.88441938525953   -1.32904970792912   -1.72363256360440
H           1.94655860593875   -1.60900944699021   -0.22380059239951
N           2.77687034763296    1.05380244735027   -0.19441241692177
H           2.81463869082776    0.04493629606638   -0.56350182692042
H           3.66467539019753    1.53772601260752   -0.28676260540285
H           2.02201294367249    1.54444845552276   -0.68201447955476
