    26
        -50.45247185  Gyration_radius:  2.52982284585 Dipole_moment: 2.510
 S          -0.24223542587453    0.16547413924227    1.00106311310028
O           0.26445642839872    1.49679553944226    0.85994415975921
O           0.30974722725661   -0.78280534283346    0.06292385047292
O          -1.77512854625076    0.14044206300652    0.89230295613547
O          -0.00547197170276   -0.30910702156423    2.43211319750406
H          -0.60520609307085   -1.12465076697121    2.57217670250184
H          -2.04754929256862    0.29760554555376   -0.10174678105330
O          -0.96166793375057   -3.10555002662840    0.13472194238674
H          -0.34259712037577   -3.81143030943029   -0.06052414570732
H          -0.49094806563407   -2.26589834314653   -0.04639593621396
O          -2.30659804377958    0.61402600375752   -1.50062015049782
H          -3.05268998673249    1.21081348616282   -1.59560608888865
H          -1.48131442201648    1.14704567261288   -1.75376733046094
O          -0.17358712094779    1.99470808614859   -1.80975213398335
H           0.53959214779524    1.39618599048230   -2.14727772208797
H           0.03244449985478    2.10236621734594   -0.86898795131898
O          -1.62597287103301   -2.25464045992792    2.53737261737836
H          -2.46601259098767   -1.80861570212745    2.39831491961528
H          -1.42927022067258   -2.72722754577131    1.69012637067732
O           1.76443379976621    0.21635435570868   -2.10725841881740
H           2.42568270431114    0.69907688335337   -1.57060520616713
H           1.31304865994488   -0.35749880832177   -1.47308968363224
N           3.06764765526508    1.62690060651153   -0.12363399284997
H           3.74037169601367    1.19294613764627    0.49586220033968
H           2.17841977878322    1.66726662609517    0.36866241897233
H           3.37040509801269    2.57941698364980   -0.28631889720526
