    26
        -50.46387061  Gyration_radius:  2.40659706543 Dipole_moment: 7.320
 S          -0.86749012406479    0.73169943574912    1.35051128475180
O          -0.88245961817518    1.02921798644126   -0.09308699737379
O          -0.09203882816679    1.69060723227114    2.08313891776756
O          -0.23476844214670   -0.69493119830328    1.49003410936465
O          -2.23354061388626    0.51695465015376    1.83166709339523
H          -2.51083722003943   -0.76139042791768    1.29529272483860
H           0.75378787516841   -0.71601312295342    1.22510973026741
O           1.45809382830251   -0.77544258746480   -2.00398925612340
H           2.13579462248391   -0.93342516781062   -2.66264113043198
H           1.31880754548027    0.19665080573165   -1.97082255489452
O           1.00056367057810    1.86239181834357   -1.63814572844056
H           0.61706896102009    2.47661698353956   -2.26566404699109
H           0.26747676188479    1.62125008245155   -1.01120048334610
O           2.30224267556545    1.87443326276338    0.88950799293279
H           2.04734028033929    2.14769382975717   -0.00122990313380
H           1.49205078359609    1.94221647324123    1.43434154266483
O           2.15653627148276   -0.74423085380233    0.67165842589156
H           2.40583922708414    0.20675279849551    0.79848815577429
H           2.01092062765071   -0.86488722009305   -0.28333893415110
O          -1.31375908554051   -1.16906166960234   -1.39100222135247
H          -0.40917161903725   -1.42146233685706   -1.61967184947926
H          -1.21551844193732   -0.26073720291107   -1.01046533129450
N          -2.56982175229563   -1.77826961758687    0.83284181298981
H          -2.07844891401753   -1.68160090697851   -0.11117859187174
H          -3.52884676368864   -2.09501413028059    0.73130395616354
H          -2.02982170762627   -2.40001890638909    1.42854129208011
