    26
        -50.45356501  Gyration_radius:  2.4681596942 Dipole_moment: 2.845
 S          -0.94275074016496    0.54518487153051   -1.39588029064877
O          -0.35624662992225    1.33560083546032   -0.33012118263684
O          -2.31317943076317    0.21612344167556   -1.16926881612164
O          -0.09273768485059   -0.72035964390645   -1.59547432317778
O          -0.76730741183213    1.26528589658861   -2.72732338921462
H           0.23202502722765    1.24880851272517   -2.92228351105305
H          -0.11057713341276   -1.34991102586526   -0.78521660123577
O           1.88984285651696   -0.77851075501090    1.70676741171290
H           2.44360329277375   -0.97728753385595    2.46256884719203
H           1.17875892254543   -0.16511606004061    2.02458907638463
O           1.76001381529101    1.25229677849112   -3.03577101128498
H           2.08862174155682    1.04244779740770   -2.12494620975365
H           2.08183259161298    2.13419288105044   -3.23816524672590
O          -0.12215392411334   -2.11838536682495    0.50839144262268
H          -0.88748625641168   -1.77665402214192    1.00368641113210
H           0.68526628896389   -1.78961280646340    0.95442974172506
O          -0.26489601412840    0.63626202014294    2.27123862342371
H          -1.03445440341462    0.04986826240046    2.28357829893805
H          -0.32320543361245    1.09860154047370    1.41598939728802
O           2.28777590576013    1.02065274486953   -0.46806168345401
H           1.36013651121951    1.27771444078164   -0.31211961050514
H           2.43328107081395    0.26123037594673    0.11208118897087
N          -2.53127501470329   -0.95725183680361    1.44130163279183
H          -2.57091748670001   -0.49938496597701    0.52639011328800
H          -3.11593287274973   -0.40475314232911    2.06077349811179
H          -3.00803761754605   -1.84704323029677    1.33284618219136
