    26
        -50.45712490  Gyration_radius:  2.42736730214 Dipole_moment: 4.255
 S          -0.46932665116180    0.76639081490637    0.90600847382355
O           0.49142354895097    0.62143016756414    1.95489289157808
O          -1.40991411136788   -0.33254951246931    0.78951844805209
O           0.25998190192459    0.90705567260611   -0.44635784991285
O          -1.22486233302082    2.07354743294110    1.03211943028289
H          -2.04514712488314    1.98217960696691    0.39452794961441
H           0.84935083156909    0.04219900118556   -0.58373223314265
O           0.37779823411981   -2.18397501721188    1.56170838870025
H           0.77771639428955   -1.69765263722435    2.28830547474660
H          -0.46068088550507   -1.72434561901344    1.38904671052272
O          -1.20041562245065   -1.44112641410333   -1.70060607539917
H          -1.36768486064363   -1.17666034498993   -0.78053402802415
H          -0.29128971521235   -1.75124047665501   -1.73498438433291
O          -3.09241003838514    1.56988123365818   -0.55189271200394
H          -3.30791099815314    0.67854621814334   -0.25869878857996
H          -2.62635186602616    1.46633277424666   -1.43070174079747
O          -1.57010006960330    1.06658707207838   -2.62018477982746
H          -0.73082040254138    1.40187617154258   -2.28883643281842
H          -1.51349781415801    0.09334094475096   -2.51618191582540
O           1.63150451996256   -1.17301642239767   -0.55546212235858
H           1.21721587060552   -1.73036273412646    0.14733727130217
H           2.43222194787328   -0.78801595141825   -0.10972889308211
N           3.25684666063565    0.15791377721960    1.07470966599011
H           3.87226413781938   -0.27842496885181    1.74998123705890
H           2.41949828398906    0.46647871811732    1.56724946516509
H           3.72459020139342    0.98361047252684    0.72249654928103
