    26
        -50.45669547  Gyration_radius:  2.50699513395 Dipole_moment: 2.575
 S          -0.68986011543917   -0.20106595644862    0.86269949924934
O          -1.12620754740613   -1.45587635842864    0.30159651249051
O          -1.05854612035478    0.95066640542890    0.07718455723285
O           0.82244666104824   -0.22822436730287    1.05859633149157
O          -1.24170840885103   -0.08089396424505    2.27458536275910
H          -0.94869247429802    0.82757390913648    2.65108538285943
H           1.32506125291009   -0.43314943555399    0.12123813878297
O           1.81919452341344   -0.74876325101679   -1.13758790803613
H           1.58804701644077   -1.69802605470636   -1.20800026943521
H           1.18663043230440   -0.26904650051911   -1.75244679166919
O          -1.58763417572079   -1.88744009269996   -2.40498394032595
H          -0.98027064842953   -2.63074422523507   -2.46762341951586
H          -1.72961231350533   -1.74823906553147   -1.45650099234211
O          -0.13160627060202    0.39132963176198   -2.40758210701223
H          -0.57385092718664    0.77385833900350   -1.63170246740533
H          -0.69840179923741   -0.36308207855581   -2.66839716060245
O          -0.54388899962915    2.22275643984558    3.04824503500247
H          -1.31498865381597    2.78444655823861    2.93931114056224
H           0.11084236624935    2.49792256438992    2.33457688922572
O           0.62545275918944   -3.14427937733820   -0.81948088878161
H           0.96702374340092   -3.79706986893129   -0.20686079835364
H          -0.05626494723260   -2.63577757194068   -0.33506445278677
N           0.96055289919272    2.75384492993281    0.95618187338728
H           0.28842212965074    2.28001557964453    0.35653893100189
H           1.80068490322226    2.18946096271449    0.97069079209057
H           1.18717470466719    3.64980284839684    0.54370074015436
