    26
        -50.44828306  Gyration_radius:  2.46655831862 Dipole_moment: 1.835
 S          -0.49739352685176   -0.59113871672950   -1.07313608804316
O          -0.23285322931541   -0.58678222530115   -2.48242229986057
O          -1.71132733521340    0.07293704096346   -0.69236151318783
O           0.70784992594794    0.06602449276124   -0.33366965579780
O          -0.50006362129317   -1.99791003995304   -0.49859702183737
H           0.47540599623352   -2.35703591199892   -0.36438853186481
H           0.70281447252860    1.04458123934967   -0.54534417104726
O           1.79316179405004   -2.81723784112693    0.02703723946693
H           1.96012303718233   -2.19193589778931    0.80523185553460
H           1.71784501521078   -3.69895930181038    0.40018616606361
O          -1.25092808403507    1.84875986222573   -2.84118584232459
H          -0.88623852762992    0.95297044302667   -2.97949948790834
H          -2.07939440347166    1.70666011557727   -2.37326918666034
O          -1.23235485041702    1.96739689799285    1.22497095365883
H          -0.62850794328397    2.54090856392094    0.74535323739625
H          -1.59335150545146    1.35555958775994    0.56398901497952
O           1.96972549514790   -1.16000608499408    1.99436911432611
H           0.99559678869498   -1.03130486115454    2.19411398315998
H           2.23999960540676   -0.34154777813912    1.57269967491901
O           0.53427085389152    2.53895199064130   -1.06066252500584
H          -0.16953127299203    2.41976198543651   -1.75757163698704
H           1.31180963389654    2.86508774510044   -1.51904141223209
N          -0.63775143496922   -0.72258543535566    2.27391731551251
H          -1.05189344973736   -1.12602198687712    1.44113100553753
H          -0.76814501742197    0.28533377178320    2.20363459727044
H          -1.16886841585551   -1.04246763543734    3.07451522497672
