    26
        -50.47135814  Gyration_radius:  2.40983542824 Dipole_moment: 4.535
 S           0.17155355664199   -0.27462132551629    1.72792675142628
O          -0.69259752374434    0.56958064911732    2.49703428548880
O           1.25460019865160    0.45359551506340    1.06220076195290
O          -0.54255187207388   -1.10606286691350    0.75631061703818
O           0.87285828606769   -1.28422831686913    2.71535301527224
H           1.35836571593693   -1.87951091138582    2.13740758405328
H          -1.71632505959776   -0.62286840720179   -0.44634242506231
O           1.29673762023036   -2.80858844154457    0.28885048342169
H           0.49205694208599   -2.24225613332823    0.41368941938571
H           0.99048629123966   -3.71719347536491    0.29207215488254
O          -2.21457359145191   -0.11856832437612   -1.11293921707217
H          -2.49528548815735    0.67788152244584   -0.64097905177824
H          -0.95001887653080    0.30257266228506   -2.14793361553202
O          -0.08905239335148    0.66949297804021   -2.47235680197244
H           0.02420580949652    1.48784953543750   -1.93195051894518
H           0.98398385381078   -0.13472426945855   -1.88586102845128
O          -2.21862431017132    1.93067683202600    0.81918769480549
H          -1.70874432493221    1.41209923826719    1.48113200790405
H          -2.79766926926933    2.50635101812195    1.32177894729103
O           0.16507465232471    2.43152638457099   -0.49617473654679
H          -0.73475320206887    2.48273663871583   -0.13556127059317
H           0.65626867962467    1.88674993732568    0.14041074953702
N           1.80025027729238   -0.57193350215775   -1.27366891971977
H           1.68251607402411   -0.12358714483178   -0.31834582669805
H           2.70815742896723   -0.34497223468382   -1.66468887531015
H           1.70308052495554   -1.58199755780284   -1.12655219477130
