    26
        -50.45422422  Gyration_radius:  2.4341541268 Dipole_moment: 2.208
 S          -1.00005233830069   -0.63621772366557    0.88716907446117
O           0.13840900621746   -1.38487899442160    0.40935977904060
O          -2.22187933426972   -0.90699080864622    0.17990294733643
O          -0.69207760489877    0.87575589814722    0.77839958922428
O          -1.15517556913262   -0.86127523823217    2.37745682372294
H          -0.16370623074648   -0.82338089156104    2.74301487684273
H          -1.23255575632236    1.27277224875400    0.01082543347951
O          -1.06416765910453   -2.02938566096190   -1.99255200569692
H          -1.70682507894002   -1.76925154307421   -1.31050204355827
H          -0.29871541656520   -2.32358658094515   -1.48625478045060
O          -0.35084018647669    0.35307825686542   -2.89376346832462
H          -0.33864177388962    0.39239767295679   -3.85145712519965
H          -0.58887363495290   -0.57834776106518   -2.65128146785778
O          -2.10950634124380    1.49917161313868   -1.22503725264786
H          -2.70037413731360    0.75423739285558   -1.05848841248401
H          -1.49615593844815    1.21671449074351   -1.93913043568456
O           1.26977278658346   -0.78855530027476    2.92311571030729
H           1.53609391415091   -1.44017947030786    2.26641640267870
H           1.59272393881359    0.10587212401748    2.55011631979891
O           1.79337820883162    0.31588447102762   -0.93792568131212
H           1.23492291700103    0.57051136277838   -1.68233662629687
H           1.29673990789191   -0.37600178419806   -0.47388313467458
N           2.03068465738001    1.42626233529761    1.75933002042354
H           2.13192877206205    1.14604919465418    0.78332542786815
H           2.85970501074632    1.93842344965807    2.03236609976905
H           1.23518789092642    2.05092125645234    1.80181392922998
