    26
        -50.44992983  Gyration_radius:  2.50764023829 Dipole_moment: 3.269
 S           0.87789271877904   -0.91907624279108   -0.96405247511042
O           1.29406957906931    0.24629931937540   -0.21303903313374
O           1.65491184985734   -1.19855269598232   -2.12484132975545
O          -0.60386291765229   -0.73552634030432   -1.36203073797059
O           0.88063552940484   -2.13398601555237   -0.03064681002574
H          -0.04783242888053   -2.27906351826883    0.39924799639303
H          -0.99750098138365    0.00193462604590   -0.79400413984737
O          -1.36246372285824   -2.42727869473542    1.06609295302807
H          -1.34407842158271   -3.14325740912727    1.70448580037546
H          -1.52223396767957   -1.57988337847044    1.59028916909865
O          -1.13489510440973    1.32105835656230    0.05132980866742
H          -0.17477535576993    1.29665181290884    0.20120651550086
H          -1.25851368356321    1.91447931203253   -0.72856296824338
O          -1.08633679147602    2.45433709753900   -2.33053241400658
H          -1.70496050624861    2.08820552135854   -2.96471462383950
H          -0.20139081812502    2.12919997908327   -2.59924956414428
O          -1.52771958057154   -0.21319479004503    2.37867781607783
H          -1.68659030952259    0.46824572956333    1.71296588524958
H          -0.56930907627107   -0.13886885128708    2.61473862232513
O           1.34227721098620    1.37889645658496   -2.87193596204424
H           1.46472237781620    0.41610849127712   -2.82766682057130
H           1.96851036233248    1.74262121074406   -2.24148190675925
N           1.16085077003221   -0.16993705527959    2.63262660101821
H           1.37142258666487   -0.01562367942368    1.64732667638486
H           1.57695557232474   -1.05647673064067    2.88943810024842
H           1.63021509872884    0.55268746883781    3.16433284108203
