    26
        -50.46949752  Gyration_radius:  2.56214441403 Dipole_moment: 5.893
 S           0.31111412891889    0.46543326026758   -0.01199166070551
O          -0.60384872843759    0.07627305663450   -1.20838324968116
O           0.27536415230682    1.89350181685651    0.16965703360478
O          -0.21871671712445   -0.25606121725387    1.16163068904955
O           1.62372752055024   -0.06013397512083   -0.37184494466331
O          -2.07301223150329    1.57483911820298    1.74327410070376
H          -1.54765940526521    2.37862881944642    1.69143993828881
H          -1.42365671570117    0.84990625724487    1.68624612034072
O          -1.22292827250787    3.52060448324382   -1.30679698405248
H          -0.60156479042900    3.02743559737963   -0.73101132454860
H          -0.73988461190232    3.72172529385305   -2.10923721584016
O           0.85650252337887   -2.24081555043120   -1.63925778786369
H           1.25943869068097   -1.39502975120375   -1.33815303531435
H           0.04866023432256   -1.96831439558021   -2.08316092018842
O           3.16063152709509   -1.56845301471532    1.16651255032993
H           3.93678123063526   -1.79234043750900    0.64982575916897
H           2.69843481555806   -0.86078912462935    0.66349014735540
O          -2.74548696085196    1.34941441130391   -0.82815234761738
H          -2.74226013451807    1.41320767052346    0.15496449768247
H          -2.45056179883393    2.23082435020325   -1.13312596750295
H          -1.50877817407633    0.55346547698191   -1.08677448205061
N           0.72964119309265   -2.62752958928852    0.97046243686335
H           0.30455879021755   -3.38528534533154    1.49255517521344
H           0.25105339199698   -1.67602154957060    1.15247007766164
H           1.73422595207068   -2.46975252008734    1.21968878043679
H           0.68822439035554   -2.75473313140977   -0.07432738664114
