    26
        -50.45588337  Gyration_radius:  2.5118738555 Dipole_moment: 3.058
 S           0.29146409481421    0.60837479234665    1.66616067295020
O          -0.54003268632873    1.77162668176243    1.77414777374963
O           0.93951085315475    0.47070545922150    0.37604721774399
O          -0.50917193643658   -0.65979995825773    1.94987521867948
O           1.35282697784378    0.59983383324394    2.76374935992231
H           1.85301834931412   -0.28281557710666    2.56937825054102
H          -1.21327495003679   -0.89155283792549    1.15091625720511
O          -1.98042249001909   -1.08590888520420    0.01527859169003
H          -1.25662354659097   -1.38503627031603   -0.61026717393165
H          -2.23063910105585   -0.17837753008225   -0.24861742797538
O           0.21093162329577   -1.53484801455002   -1.31015786464092
H           0.10859748988650   -1.13876367289753   -2.20179463737281
H           0.62552608652225   -0.84146930073992   -0.76930949051074
O           0.00731284866823    1.97995708050503   -1.73362386250601
H          -0.90292460255964    2.05824691991660   -1.41748893214459
H           0.49118415513644    1.56623704669986   -1.00050320236340
O          -2.30803660165606    1.61518147445553   -0.18094754795587
H          -1.69957397476357    1.77620150485027    0.57406251198533
H          -3.12772002446181    2.06722238930036    0.02790727588250
O          -0.02835211435240   -0.01170751626992   -3.51794655025056
H          -0.04296551883422    0.80035122462956   -2.95944749655888
H           0.68262064955749    0.10903815979121   -4.14812041945124
N           2.28970536189785   -1.63614690928165    1.94751754223612
H           2.42749673514293   -1.41118391719128    0.96966364529422
H           1.46577324515580   -2.22036586314370    2.02173854408516
H           3.09376907670928   -2.14500031376844    2.29178174369264
