    26
        -50.46460256  Gyration_radius:  2.41101491916 Dipole_moment: 2.661
 S          -0.02946377360756    0.64273026029311    1.23996831130904
O           1.13100449243751    0.39111306481590    0.37570488423356
O          -0.73326521882828   -0.58596332541470    1.54892389967798
O          -0.90926211831615    1.63452413079019    0.60774725865726
O           0.49079403449846    1.23931783504063    2.56761859862352
H           0.94550937981865    2.07339840397620    2.25701224291109
H          -1.58653681339621    1.17156895293060   -0.60936470937543
O          -2.27488906942799   -1.56137843642799   -0.36003268766649
H          -1.84628328349359   -1.28506333017786    0.48176855923930
H          -1.61901674920450   -2.13251954186643   -0.80311187854453
O          -1.89109414400870    0.65309449692088   -1.46230452111118
H          -2.22045678482536   -0.27195517414771   -1.07272847777902
H          -0.97236520343351    0.41156985914584   -1.91025287148426
O          -0.02393975225965   -2.69332554914847   -1.42859696745926
H           0.51814756648059   -2.60366287203075   -0.59449944738163
H           0.20144225774645   -3.54203867134426   -1.81105520940906
O           0.41366600360476   -0.08772837880608   -2.12112665819760
H           0.33827023480107   -1.06048310608874   -2.09606009112419
H           0.81992524451843    0.15739087870141   -1.25737136716106
O           1.29166820316870   -2.22897058537725    0.78756657913466
H           0.58397602566959   -2.17300706884794    1.44232676967806
H           1.49959660135571   -1.28884754166208    0.61800765467460
N           1.44535682875667    3.18234349641293    1.14192191302836
H           0.53887894768762    3.25994833804020    0.69354725593768
H           2.02379473688577    2.59720136635344    0.55122358757591
H           1.86454234364908    4.10074251804326    1.21316735176308
