    26
        -50.45130308  Gyration_radius:  2.46758975226 Dipole_moment: 0.978
 S           0.18082782871576    0.27608991564471    1.47117025856797
O           0.95350449459366   -0.38351036746230    0.43943760538045
O           0.52946223878534   -0.14850253040638    2.79316152450791
O          -1.32254186768884    0.02374779091869    1.20067853732417
O           0.29527371182425    1.77675465519792    1.33546889365190
H          -0.40280585633223    2.12329426145034    0.60913903647153
H          -1.48901526436428   -0.95269157353613    1.05750055676820
O           0.81255179804913   -2.69927548687219    2.05280133375921
H           0.78452821414211   -1.85539942880945    2.54411788313609
H           1.45535336016529   -2.55491711257191    1.35241777024851
O          -0.58464731218004    1.28967349727267   -2.46385104794956
H          -0.75582962665655    0.34106317998418   -2.31815198939671
H           0.38630923573116    1.39032945500198   -2.33391978111589
O          -0.60114637248291   -1.29667606308082   -1.58578189793459
H          -1.22736833513673   -1.86204762236705   -1.12604414446792
H           0.05398480711272   -1.03243449140888   -0.91772344572583
O          -1.54670050131913   -2.53316546873686    0.92556632701793
H          -2.20866806234976   -2.91781140828749    1.50411909837082
H          -0.66122331250111   -2.75119544151705    1.32491283432156
O          -1.28750973697056    2.59100808303425   -0.38833557992842
H          -1.09394672833277    2.05470960136542   -1.23870000440171
H          -1.08081846158982    3.50543190670806   -0.59552091669202
N           1.97998266936355    1.45650370232642   -1.56790690676075
H           1.77171276491543    0.78933435417660   -0.82713154594336
H           2.32475998055107    2.29896529841493   -1.12478777712333
H           2.73397033392930    1.07072128355496   -2.12263663208776
