    26
        -50.44920703  Gyration_radius:  2.55852740053 Dipole_moment: 4.299
 S           0.50027154751787    0.14629026194468    0.68291643232025
O           1.01637189574379    1.41375941803003    1.09038942326597
O           1.00614016060333   -0.32849364280710   -0.58554462582626
O          -1.03910736320780    0.18112802712182    0.60750867139847
O           0.77341510115041   -0.93527652946629    1.72800944078338
H          -0.00463530551586   -1.02473971337292    2.39960622927812
H          -1.26501067206923    0.66515381691478   -0.28044714472332
O          -0.33785621351420   -2.63296715078718   -0.40268671944718
H           0.28844868824778   -3.25468995605473   -0.02726870626257
H           0.16432382167948   -1.81365523781698   -0.56572657205981
O          -2.52664438014206   -2.18032377947191    1.15392610225934
H          -1.79607887678584   -2.43155065769372    0.55100518481699
H          -2.87189115663844   -1.35716768434339    0.79883406255316
O           0.47296226467439    3.10857456371077   -0.98344589415388
H           1.21985806212056    2.81193501367756   -1.54845329009627
H           0.68538795795628    2.75821171643610   -0.10282290289690
O          -1.18618056039798   -1.36008970865268    3.24183776729887
H          -1.79970367017255   -1.67385998199144    2.51647695292695
H          -1.00218470548428   -2.12275449577452    3.79546324192822
O          -1.28469115927562    1.32640767473905   -1.60264788399096
H          -0.70973337365817    2.13739703655841   -1.42780960914644
H          -0.76524507389158    0.75829322942606   -2.17848772129772
N           2.44150052515503    1.66713450569349   -2.20214953652487
H           2.59072940930047    1.38231229911753   -3.16231954788952
H           2.08381612398126    0.86400581138401   -1.68846997832996
H           3.34573694262049    1.89496516348225   -1.80769338619129
