    26
        -50.46742659  Gyration_radius:  2.40207451138 Dipole_moment: 4.780
 S           0.97728032211785   -0.55404328643072   -1.30426728282133
O           0.35037632424323   -1.42619203614616   -0.31122944863023
O           2.36847954233442   -0.30831981551580   -1.01208373426708
O           0.20235773727168    0.81745829502139   -1.24862021057402
O           0.69426706820577   -1.01258144068847   -2.66213869563215
H          -0.68848545520223   -0.63480510582503   -2.78099722580564
H           0.40975957035714    1.35025180703148   -0.41658426506391
O          -1.43099765667931    0.60944259614318    2.05115677414109
H          -0.73329253067234   -0.08468680628321    2.22406725577356
H          -1.94151717180623    0.68160404536483    2.85827270448825
O           0.53885129204670   -1.09667897863534    2.31728871886946
H           0.49132938563531   -1.42334420766773    1.39592234655419
H           1.38068160538184   -0.62023421687902    2.34875073170558
O           2.69512598859374    0.42668609905100    1.45912715260850
H           3.61361375702748    0.67729170568917    1.56904402260664
H           2.61742628416990    0.09152213081514    0.52704906684472
O           0.60254976780277    2.07585035925454    0.94670615201120
H          -0.16737658571602    1.72145943603750    1.42746372604236
H           1.38853525649896    1.60757978982921    1.28864979103328
O          -2.16887364247973   -0.82296083161998   -0.22595392340182
H          -1.26598615613257   -1.22399903676117   -0.19661032247010
H          -2.13932814014988   -0.15677851275644    0.48171080757111
N          -1.72903615156774   -0.26153139749749   -2.72984487750763
H          -1.69850724913081    0.73715059478296   -2.91463088562474
H          -2.03225503543924   -0.42593804671629   -1.70624521081921
H          -2.33497812671353   -0.74420316964944   -3.38600316752750
