    26
        -50.45216618  Gyration_radius:  2.59364792133 Dipole_moment: 0.939
 S          -0.00137392719014    1.13861128311536    0.26185171575396
O           0.83655945802136    0.72281965777893   -0.83719500149911
O           0.37298701193193    0.61545863995345    1.54011136970080
O          -1.45182865777706    0.75447358268310   -0.06584571970122
O          -0.03068880688356    2.66873983418279    0.32535969353192
H          -0.57882429948020    2.97505584343598   -0.47805371067358
H          -1.78901783485380    0.11365283095164    0.70581916453174
O          -1.14704857561288   -2.90520523111379    0.54503530001016
H          -1.67262420750099   -3.20534225325742   -0.19780563676800
H          -0.27271518371335   -2.61990858158840    0.16638330634592
O          -1.95426490648406   -0.77662952308322    1.80957793708407
H          -1.73005262722493   -1.66230476183513    1.40277262868649
H          -1.16095533558812   -0.50041700450105    2.28804773031671
O          -1.47050517165598    3.11097526162925   -1.71714889350352
H          -0.95760021132169    2.64594630979881   -2.42295359705914
H          -2.21496299118037    2.53640517301547   -1.51538708732099
O           0.06527614657573    1.58469748195984   -3.23043336092638
H           0.39500575654454    1.14333625987143   -2.42092704998960
H           0.83920785291125    1.90635956803682   -3.69657493602530
O           1.11343134303673   -1.99760459106464   -0.44448525390112
H           1.04508077443194   -1.07170636581475   -0.71928218326274
H           1.70964583199149   -1.98042761914740    0.33615331024831
N           2.45876395228019   -1.44825834118260    1.86870019548332
H           3.41269664937306   -1.11065689860926    1.85293807643138
H           2.33887257279747   -1.99838491477412    2.70988412979956
H           1.84493540652543   -0.63968561052344    1.93345789262800
