    26
        -50.45748041  Gyration_radius:  2.49135528423 Dipole_moment: 4.361
 S           0.75653750257451    0.73351790570065    0.06926623532914
O          -0.37611863037242    0.87063371560241    0.98538604410974
O           0.31770648528008    0.69507147849824   -1.31520162242589
O           1.53178876838443   -0.46909767842191    0.41329964688434
O           1.66645135829859    1.96329523250420    0.21460547374155
H           1.97561745779227    2.02118582429056    1.16656374275447
H           0.85460531860298   -1.66341190859945   -0.02712853209441
O           0.35522595874180   -1.45464606456720   -2.80359452737389
H           0.46970252765861   -0.57283999841250   -2.37362150755975
H          -0.45377983367069   -1.40378285364424   -3.31658937039028
O           2.28241971721562    2.08547254214712    2.71732956104679
H           1.85191674715915    1.24962448581376    3.03385921097339
H           1.80172626439007    2.80929036203087    3.12471932913735
O          -1.87410127515631   -1.14176466955717    0.18547277579886
H          -1.43903325642806   -0.37864897071027    0.63111306905422
H          -2.25798008350879   -0.74374677135436   -0.63571440941371
O           0.19111107510037   -2.37467603313445   -0.42905254044067
H           0.27454369996381   -2.21682270803393   -1.43123834624001
H          -0.76884556757300   -1.96411688102583   -0.14814668249609
O           0.89582162579001   -0.11522276733717    3.09351430497182
H           0.24944898606738    0.22950138440816    2.44526216752807
H           1.41685933430318   -0.75457286573612    2.59630523770277
N          -2.46557261783304    0.40333067829872   -1.92226641011493
H          -3.06337609297313    1.12171921252680   -1.53198454763672
H          -2.68822145568380    0.33339674919149   -2.90767862904147
H          -1.50445402407264    0.73731058961823   -1.83447964376171
