    26
        -50.45659820  Gyration_radius:  2.46556329898 Dipole_moment: 6.037
 S          -0.48747348829844    1.27475429697921    0.07351247924294
O          -0.27759119377043    0.05957843836534    0.89574826669848
O          -1.85328158724944    1.29234026592666   -0.42867035270457
O           0.50967194387880    1.35202687113418   -0.96941753033282
O          -0.33667901378384    2.49160209128041    1.01869004469041
H           0.63849457454584    2.65494913893254    1.08239199508656
H           0.36328622906835    0.30243069366440   -2.26277287225442
O           1.11264516608947   -1.75614395707645   -0.51848388827300
H           2.04313449639347   -1.55920503227441   -0.39348972576465
H           0.63556498236767   -1.07869770314124    0.00411828704891
O          -2.23581105659544   -0.62355802810557   -1.98273780513887
H          -2.20521669107305    0.24448730132614   -1.42546086926613
H          -2.17237350126212   -1.36679366640552   -1.20767642058354
O           1.98861498576164    0.17453602980361    2.21173213267383
H           1.79992598334617   -0.05100113261330    3.12418941454817
H           1.13023023164512    0.10517793985778    1.73084105306982
O           2.22242502937434    2.73600393543046    1.46471521283993
H           2.35008851229904    1.79436775658113    1.71019659108528
H           2.39119866436044    3.25856805880030    2.25175234175903
O           0.15168078813106   -0.54364825079552   -2.72549327946467
H          -1.28720020707897   -0.63356797350805   -2.44298884210612
H           0.57320296742072   -1.21359426229278   -2.15022004739071
N          -1.85921506900148   -2.13588716947787    0.00612591734944
H          -2.61300544448810   -2.57255821153684    0.51919785591312
H          -1.45374510346039   -1.38817633057742    0.57417496910955
H          -1.12857218860332   -2.81799111026720   -0.15997490785560
