    26
        -50.46949752  Gyration_radius:  2.56213406744 Dipole_moment: 5.894
 S           0.13167122131658   -0.36891825425385   -0.40004991354181
O           0.16900595602802   -0.57601421980862   -1.82464493278591
O           0.59461128131674   -1.50921041478259    0.38359105362909
O           0.85960093417316    0.85057183045088    0.00197251509507
O          -1.34262954549754   -0.16122064162671    0.05074869219653
O          -1.99311723772618   -0.50817739033953   -3.37148631277662
H          -2.40481517006295   -1.37273341897466   -3.34343250139664
H          -1.13864568702975   -0.59780896313290   -2.89958041944786
O           2.82198857906475   -1.60350008408741    1.80970064228586
H           2.83821635883750   -2.45823441173804    2.24405646448716
H           2.10183778703773   -1.65550144690159    1.14178652451285
O          -0.73928320716000   -1.04282976957199    2.60928907958845
H          -1.57305754023091   -0.67993393085107    2.29773046816504
H          -0.32164074428932   -1.41032117824480    1.79759027502496
O           0.19557288342066    2.24690453062841   -2.17487086990548
H           0.39071608724161    1.60309284829251   -2.86202454199787
H           0.55537947142527    1.85478565818837   -1.35804175689616
O          -2.29645643194845    1.49373252894066   -1.59343392965982
H          -2.44411280722559    0.88690594396493   -2.34632525727225
H          -1.77406192059122    0.53161769847235   -0.57794172012500
H          -1.48285747532310    1.99439491826839   -1.83421236766136
N           1.38195692240197    0.52627623571295    2.48823844132613
H           2.13495979069043   -0.20008919658407    2.44882684701960
H           0.50022877821562    0.03897791110952    2.79576185660614
H           1.62950453537601    1.32518776286008    3.06089377021730
H           1.20542720053654    0.79204544400454    1.45585789331622
