    26
        -50.46220843  Gyration_radius:  2.42241707074 Dipole_moment: 2.969
 S          -0.62637551540264    0.85871295775990    0.66834741588107
O           0.68387380216137    0.71364666110612    1.28752721001697
O          -1.51822721852639   -0.23676597939946    1.02405862722523
O          -0.48913101124150    0.96149408683270   -0.79182576963924
O          -1.28101917786179    2.16402061256692    1.17257717147577
H          -0.56548503952846    2.84610586764536    1.01858512524013
H          -0.79157124494107   -0.23878669359438   -1.61045913505923
O           2.19010216344242    0.15546066582840   -0.81187325225941
H           1.67888299598985    0.65782045547349   -1.45363248586488
H           1.75105773705181    0.34601871243296    0.04557025356032
O          -0.90748627558706   -1.17182177221963   -2.04464581534403
H          -1.69130713227774   -1.59450623804820   -1.54915743913345
H          -0.00767373097173   -1.71639716793068   -1.71239615028896
O           1.11411513364580   -2.23599655971466   -1.09565487471844
H           1.71604878286026   -1.44920768109549   -1.06109080113374
H           0.83908301723664   -2.38177748137682   -0.15565121383284
O           0.27082174911723   -2.14919373690133    1.41121436559471
H          -0.43941228391067   -1.47541184376454    1.36824069631967
H           0.96893937747632   -1.72610686141399    1.91733700988240
O          -2.68962636602258   -2.07310882934975   -0.44350108328521
H          -2.46833639812181   -1.34678391607206    0.18061457704921
H          -2.43942770862718   -2.88734251805309    0.00059191112034
N           0.91753615245161    3.48106184004040    0.70175146285446
H           1.37090870729692    2.62287348531319    1.00190094841711
H           1.30997991349503    4.25967574287523    1.21463064359380
H           1.10372958075953    3.61631618106206   -0.28305940768797
