    26
        -50.46059559  Gyration_radius:  2.48222148553 Dipole_moment: 8.772
 S           0.14165483058837   -0.50466194919462   -0.78819913714072
O           0.13158683487891    0.54669976024409   -1.77379534202612
O          -0.56695404191202   -0.13603989431396    0.43812935874129
O           1.61314909768086   -0.79718461118055   -0.34425202912703
O          -0.32539141549684   -1.79172972376285   -1.30949174314685
H           0.24217043019730   -2.73420349568729   -0.44148854669079
H           1.85454265347568   -0.01062985580331    0.25810814537252
O           1.93126339856714    1.19148756490638    1.18742053817598
H           1.69096052333010    1.94117765673291    0.56504172875522
H           1.17826979630377    1.10569650670339    1.77935991809672
O           0.92484732622478    2.84078901902142   -0.54251263113492
H           0.76771700667153    2.14286808556932   -1.19993137165669
H           0.04859627284701    2.96307231893852   -0.11256040318147
O          -2.18929252703904    1.89679699036770   -2.15120218242088
H          -2.01005268197020    2.52235537606145   -2.85561457521043
H          -1.40170452823848    1.32508718145415   -2.09335056417161
O          -0.55239968300233   -1.98159942714641    2.24781190892115
H          -0.57526384341100   -1.20737094612938    1.62328907737464
H          -1.46418426237753   -2.13455486554554    2.50293947875174
O          -1.52574769003385    2.43337014738020    0.47559766476918
H          -2.02159073796969    2.43873193911174   -0.36010972649674
H          -1.28512245252894    1.50045998080887    0.59694914504145
N           0.74431162321410   -3.30424553628176    0.38414724126648
H           0.25246340437499   -2.95974917691401    1.25719353420983
H           1.70846867517007   -2.97596033636389    0.38911211508019
H           0.68770200045322   -4.31066268899937    0.26740841781848
