    26
        -50.45495496  Gyration_radius:  2.51002619864 Dipole_moment: 5.715
 S          -1.32826217343043    0.40647085204989    0.04172744696765
O          -0.82215092654119    1.69365145127483   -0.33474653873849
O          -1.17542584861279    0.01760159933969    1.41201436317825
O          -0.61925777338836   -0.64706147774815   -0.85025475226168
O          -2.80546473676163    0.29575078553419   -0.35336064796100
H          -2.88328696677325    0.79472247970248   -1.25733262440156
H          -0.57096744404717   -1.51915671324824   -0.28954217893799
O           2.09734930543770   -1.99036861071190    1.23443145546571
H           2.84421448639879   -2.58697927485291    1.29590752126080
H           2.23664971487934   -1.44903315230665    0.40275293650169
O          -0.46428829905575   -2.53227739764198    0.79418043424536
H          -0.90127240418626   -1.99136809445997    1.46619025874332
H           0.49918312494143   -2.49233091651102    1.00972791028694
O           2.24754036856675   -0.51841563996486   -0.91078176777124
H           2.27860495473921    0.39551645707299   -0.52607753842385
H           1.36440066475095   -0.59867983364646   -1.28646234851318
O           1.32232047744581    0.38471300012673    2.56629750185234
H           1.68990999856675   -0.47579999845029    2.31710197660484
H           0.37623479982933    0.33510249577513    2.36861118304804
O           1.87467753466707    1.78883225825919    0.31188344163494
H           1.82602942462309    1.46006377945776    1.23300530258574
H           0.95825148412172    1.96964116789244    0.05790125089878
N          -2.61195737276028    1.65204307572435   -2.50523045487581
H          -2.35194759951685    1.15066498861701   -3.34406316960615
H          -1.78703879411313    2.09659129804879   -2.11154890661384
H          -3.29404597975633    2.36010541066879   -2.74233205509401
