    26
        -50.46107402  Gyration_radius:  2.50849877395 Dipole_moment: 3.561
 S           0.18283664803480   -1.62303070981853   -0.48456793993803
O          -0.06973892250742   -2.45586950790715   -1.62985046672165
O          -1.04141822823575   -1.23744930109037    0.21603495288833
O           0.81572771596165   -0.25281748487926   -1.01118436520054
O           1.20472078524308   -2.12259448347760    0.42098745354815
H           2.01481709012353   -0.95577989834166    0.85515310724713
H           0.05744022502228    0.25807177874379   -1.35662413182996
O          -1.58308597443662   -1.15126643185957   -3.34482666445040
H          -2.27514510394283   -1.75069316350777   -3.62831196215103
H          -0.97429123507465   -1.69113558171719   -2.78936272714679
O           0.90683297215477    1.63547579793857    2.05944450979538
H           0.45450616744580    2.08204354256450    1.31417292622137
H           0.25723889487638    0.99405392922871    2.42157097008797
O          -0.45846084133591    2.73237529005279   -0.01293863240620
H          -1.10183781897037    3.42347599130125    0.15056828996700
H          -0.90023293003630    2.07313849543884   -0.57628084490549
O          -0.72338725831653   -0.36712801693965    2.66668479230011
H          -0.81683837668860   -0.76655675854043    1.77107395594558
H          -1.57756707824963   -0.46279316614616    3.08942455673414
O          -1.63610223910544    0.70524617176999   -1.43056280811022
H          -1.77559577647363    0.22712391371799   -2.27342049512700
H          -1.69977378520908    0.01427947722963   -0.73904356724881
N           2.58042817752619   -0.05034025502652    1.04169701055712
H           1.90540952767534    0.68682059655518    1.49287931457226
H           2.87848464030800    0.29514551960415    0.13311430777469
H           3.37503272419778   -0.23979573489106    1.64416843760455
