    26
        -50.46506319  Gyration_radius:  2.61393665156 Dipole_moment: 4.710
 S           1.03636450387683   -0.22196151261741   -0.09208177406136
O           0.86672355942551    1.20755027350392   -0.32244897122156
O           2.52230330020806   -0.58514485734029   -0.31640049491680
O           0.71043715836656   -0.58122173907755    1.28696726022833
O           0.22629346686279   -1.00846398400293   -1.02352951010106
O          -0.58743027636290   -1.00886716138005    3.74358979459683
H           0.05665679901536   -0.97876092513853    3.02084725396801
H          -0.12708849594325   -1.38176432215334    4.49637537359444
O          -1.19553332421616    2.57665391301719    0.57907669400872
H          -0.81909178626941    3.31895880922572    1.05459127295674
H          -0.43489777346814    2.12425297299123    0.14314571301779
O          -2.35855727244141   -1.34335392361592   -0.60533162486804
H          -1.41733478848189   -1.20571562068478   -0.86510430098144
H          -2.49471734574189   -2.29220358942553   -0.61062495393377
O           1.02981267625123   -0.55107698684186   -3.50393075151749
H           0.63535406665577   -0.72710754855686   -2.62187738066216
H           1.31588630005421   -1.40100858652769   -3.84265040460299
O           2.73856265016953    1.08383593766436   -2.24216045414089
H           2.79266585801400    0.01088367509152   -1.07862453887557
H           2.22423654005048    0.60190906341639   -2.92406215514918
H           2.07754663623006    1.57774220742577   -1.73254133807323
N          -1.79746758698297    0.16504521207892    1.50899289147897
H          -2.11835722550272   -0.03513485280354    2.45455529547621
H          -1.81229686323741    1.18248606648078    1.26652610833748
H          -0.77992707506843   -0.13049401732274    1.44926203253589
H          -2.29014367145574   -0.39703849341364    0.77743897291924
