    26
        -50.45739765  Gyration_radius:  2.43914328163 Dipole_moment: 2.407
 S           0.08223224153515   -0.09389924155235    0.79570351342088
O          -0.51348993073905   -1.41164993984684    0.93578152441357
O          -0.73976713662674    0.94799086072417    1.37353950463946
O           0.35499734030656    0.19238747752821   -0.63502498312232
O           1.44320007945184   -0.04347327221016    1.51916057884643
H           2.01977618278348   -0.82455438417774    1.23552560782588
H          -0.85464356393601    0.70223168430925   -1.29814789135096
O          -1.79381711682565    1.11308594933198   -1.48509899240292
H          -2.39258551060203    0.51672013451714   -0.90850176428569
H          -1.70253744199614    2.05971632634765   -0.95927266797154
O          -1.32863761444978    3.06849576711184   -0.02683789720202
H          -1.22140237581271    2.44438445842568    0.72781668689549
H          -0.39855598230311    3.28249950669488   -0.25387622411580
O           1.31149122987194    2.66608902156418   -0.24787110677906
H           1.11555108797154    1.73945594775338   -0.47885365049686
H           1.77718049081385    2.63033164055501    0.58972497815789
O          -2.87234113651535   -0.45868387900634    0.22392987681300
H          -2.06670978616124   -0.95599718044436    0.49493963581464
H          -3.11054121977338    0.05952865649205    0.99800106909410
O           2.79192942066885   -2.10265719778260    0.80357394774659
H           2.63582718007352   -2.76699820277831    1.47842005617409
H           2.25397633277749   -2.38106515839885    0.00589411755700
N           1.04103221616187   -2.63551654514282   -1.09388180515066
H           1.09707779524115   -1.88237858571941   -1.76863229189154
H           0.29634293982142   -2.38472254304298   -0.44442856711420
H           0.77441426826368   -3.48132128124468   -1.58158326550643
