    26
        -50.46282468  Gyration_radius:  2.50701213846 Dipole_moment: 2.381
 S          -0.42040776674529   -0.83120133497459   -0.55753233040929
O          -0.48178477223428    0.52045639736987    0.07743957083217
O          -1.19315973464163   -1.78608695150332    0.19063874125964
O           1.09583547429397   -1.21966854908946   -0.48281923535543
O          -0.73163044340239   -0.72962402012351   -1.95969085454703
H          -0.15466727866375    0.43953177633459   -3.05382197346090
H           1.30626489306145   -1.44815072387483    0.48231964988425
O          -1.08114875198839   -2.06500719079786    2.79780094091958
H          -1.79452467042612   -2.63831891985573    3.07993943060125
H          -1.18359975707735   -1.96885487861048    1.82303677029910
O           0.12060798259006    0.47900381312574    2.70360072631084
H          -0.49767676400592   -0.15258949262521    3.09588450559290
H          -0.20016594644076    0.61722645204431    1.79341997309856
O           0.15484797337561    1.34573020900101   -3.28805708615324
H           1.12287954244760    1.46018234749437   -2.16454999481239
H          -0.58076265084531    1.90456119440862   -2.96150825433030
O           1.57033511029371   -1.61378546571255    1.98884957465463
H           1.25518772399929   -0.75113714620572    2.35633355881861
H           0.92209325841827   -2.24783145599884    2.32359222943453
O          -1.82040251226577    2.13483923348653   -1.64945788794463
H          -2.63058606658923    1.69293083876396   -1.90952184541490
H          -1.43368901506953    1.58229160355528   -0.94432425427040
N           1.59825217207390    1.37232022635029   -1.17251876527359
H           0.76682483414728    1.14751937241038   -0.53208560006421
H           2.09515902133306    2.20995180873352   -0.88592211951713
H           2.19591814437888    0.54571085626773   -1.15104548018184
