    26
        -50.45375288  Gyration_radius:  2.54675442095 Dipole_moment: 6.584
 S           0.34411169590896    1.01922360453324    0.45139909192690
O           0.61560589691126    1.63435888587114   -0.81038763576627
O           1.10110757731508   -0.19864770278596    0.68632491358770
O          -1.14509227841537    0.69293159843755    0.58256270353229
O           0.60789740708495    2.01525873930503    1.57047333506577
H           0.38431971257807    1.60214645072180    2.47948464594653
H          -1.42870253444282    0.11116722446938   -0.25862242804278
O           0.14301962982984    0.87915752498578    3.79146826806381
H          -0.21964292732724   -0.00517830478236    3.48544147568829
H           0.99498476114595    0.70477584774170    4.19797709177061
O          -1.63053183319866   -0.66519638986185   -1.43777904085002
H          -1.58475310138305    0.02455882450441   -2.16086323507019
H          -0.83498987683790   -1.21425314770322   -1.55489367770035
O           0.89310534638404   -1.74787288668522   -1.42998565470827
H           1.34173301030702   -2.58488623632836   -1.29919743308722
H           1.08207707032497   -1.19382301088660   -0.63958941282090
O           1.43704738513711    0.41084496420553   -3.15870590283771
H           1.36375496257704   -0.48278812049967   -2.79671162010166
H           1.45357926096706    0.99256802799294   -2.38463364641895
O          -1.12059552120888    1.25317998139090   -3.13529332816218
H          -0.23989076401668    0.94015639847380   -3.43591828514027
H          -0.91825421662821    1.95562853752425   -2.50943693933311
N          -0.61336662504031   -1.37056955016821    2.64903089387883
H           0.05536061442338   -1.21581945234854    1.89707409632314
H          -1.53749099291725   -1.22555929506046    2.26196668010119
H          -0.54439365938752   -2.33136251307457    2.95881504408324
