    26
        -50.46366686  Gyration_radius:  2.4106222292 Dipole_moment: 5.616
 S          -0.03303385093719   -1.35667628045441    0.45551445820682
O           0.72702630965076   -0.12088048964814    0.73974161828844
O           0.64509615346911   -2.12470385073316   -0.57198790918004
O          -1.40371500239740   -1.02098004391940    0.09791802099120
O          -0.04436126340677   -2.19290913901427    1.75193813286199
H          -0.85151396272636   -1.86305429625461    2.24576513953555
H          -1.57781176605292   -0.27853414054015   -1.41489548868795
O          -2.13502126970879   -1.01349109269988    2.65767839824047
H          -1.72760003152939   -0.15424457890726    2.88482091244788
H          -2.36022787687351   -0.94837539933505    1.71596039054522
O           0.82319749259229   -0.83239068771122   -2.71495367175927
H           1.52270576404944   -0.09824202493706   -2.29756707807798
H           0.77207369999759   -1.50893010094381   -1.94748946735465
O          -1.35858300431650    0.29183795484397   -2.18538401421155
H          -1.07605419342307    1.13262189216095   -1.77286347617943
H          -0.11171802990717   -0.36508352811039   -2.66662489380645
O          -0.44160027382948    1.09363960793940    2.77775084061813
H           0.15046944482028    1.12459118328840    3.53085347279705
H           0.05791018080441    0.66057762821423    2.05127627930777
O          -0.28362255541193    2.06064418345994   -0.45451953804238
H           0.07318887016825    1.27742027151576    0.01295998167278
H          -0.87221725548309    2.48418567512763    0.17353291335398
N           2.27696721792081    0.79113290920660   -1.45971114689044
H           2.00306992736119    0.43555735133937   -0.54026232298703
H           1.94045993808841    1.74446923413952   -1.53082859172509
H           3.28491531689335    0.78181774209386   -1.53862294966533
