    26
        -50.46007690  Gyration_radius:  2.47016667287 Dipole_moment: 2.725
 S          -0.50148065749466    1.06953208296095    0.22824645750277
O          -1.03806828718848    0.21945108001305   -0.82112908897008
O           0.94895494375137    0.89094523342686    0.34374189036985
O          -1.15677165977543    0.84168065668550    1.51025794256468
O          -0.75807723563259    2.53996210087871   -0.20390065137879
H          -0.60588528353963    3.04544001932449    0.62380341025140
H          -1.09950208031205   -0.82010108537920    1.89614621569362
O          -0.92149266080741   -1.78238867149941    1.81814449015152
H          -1.54803303044402   -2.09437765433241    1.12475710021489
H           0.38258128900429   -1.79299728737146    1.22064604405305
O           0.60186683025833   -1.65664465648336   -1.74835610964040
H           1.34019747635657   -1.10578404021809   -2.11395871193047
H          -0.10212496907481   -0.99309635417741   -1.58277837445940
O           1.27180965692769   -1.58571908296524    0.65821541434383
H           1.04610954400351   -1.79763332235325   -0.35729565300631
H           1.29701206480354   -0.56166090295409    0.64076890272782
O          -2.32530148073965   -2.11366260602172   -0.41671191547745
H          -1.93425337512974   -2.65151801804521   -1.10930331697499
H          -2.08356479270569   -1.19140703213423   -0.62185883138284
O          -0.57368219947889    3.26591766594570    2.30743856910602
H          -0.77199294892340    2.30797417040748    2.32191605899608
H          -1.32305274335242    3.70776357130245    2.71381711457120
N           2.35020526955710    0.31699120355258   -2.15717868487486
H           1.98010861627520    0.74117053841296   -1.30672814293293
H           2.17039707565933    0.95885451193503   -2.91903264009809
H           3.35404064804108    0.24130784914212   -2.04966748944914
