    26
        -50.45484242  Gyration_radius:  2.45704910873 Dipole_moment: 2.858
 S          -1.72237691317315    0.25935592685867    0.67140718769120
O          -0.89715516859535    1.44395413024011    0.62735686206279
O          -2.20294402206703   -0.08495778129864    1.97514861459606
O          -0.92504845028389   -0.92420968302282    0.07853936892667
O          -2.87416984669615    0.39813893338181   -0.31013545188941
H          -2.43087484742976    0.80078618176387   -1.14932980171760
H           0.00172870488763   -1.02640065463916    0.52326049597410
O           1.31981309474452   -1.04198902477825    1.23193866373767
H           1.00123013237699   -0.88302481212128    2.14815439747871
H           1.69597221270914   -0.19004213172738    0.93259908849932
O          -1.61255595887284    1.48422455263872   -2.19547446977168
H          -1.51918414092986    2.38406030490895   -1.87321723656267
H          -0.67557905440166    1.13187832916469   -2.26529574135034
O           0.88240697029646    0.71670458186391   -2.23910869908967
H           1.31456619378493    1.05325697862551   -1.44273318530236
H           0.97641380612880   -0.26269592041305   -2.19416539232212
O          -0.00835536702826   -0.41807708746584    3.45540834633216
H          -0.85686154327644   -0.21620569395152    3.01065507601748
H          -0.22101070866359   -1.02200774667775    4.16970724598483
O           1.69932521254655    1.48513602654078    0.36910146799972
H           0.72257936064526    1.55582629089131    0.48702000319334
H           2.08376739775896    2.22077332011729    0.84816787106911
N           1.09316894192961   -1.96823693500569   -1.82070041598423
H           1.64464575263537   -2.08303688067459   -0.97862771602467
H           1.38341540865897   -2.67002951453591   -2.48933062715749
H           0.12708282229750   -2.14318170061713   -1.57034594243106
