    26
        -50.45292179  Gyration_radius:  2.46296921253 Dipole_moment: 3.149
 S          -0.27524662080145    1.34224130881620   -0.10846112102395
O           0.48238998773145    1.81049554414394    1.01062202508152
O          -1.23132426276375    0.30827561282548    0.22607714096612
O           0.68455242172635    0.80135848850374   -1.19251164118192
O          -0.97767826538861    2.48698893518145   -0.81691523083265
H          -1.26656267335314    2.13302670340745   -1.74627317199399
H           1.43485145424428    0.31748083419020   -0.71400847262210
O          -1.68976715299653   -0.95322065398455   -2.09871721249891
H          -1.71961212652681   -0.62223910117714   -1.18485767165099
H          -0.90182723024799   -1.52391442607157   -2.12083154929386
O          -1.69790557721549    1.47653637983269   -3.00623661324029
H          -2.62597428835690    1.65378687421558   -3.17895605285277
H          -1.63524188714839    0.49743924733891   -2.80005152500377
O           0.30533464569155   -1.55441279556133    1.41250883082536
H           0.39980212213190   -1.17912862236463    2.31757113804330
H          -0.39482488126764   -1.00617653299320    1.01189880275928
O           2.35743415067835   -0.38822932760833    0.29989222144854
H           2.58240068227833    0.32368817255103    0.90431121108729
H           1.67584617639666   -0.94408568314785    0.77470399892786
O           0.58869742183337   -2.35254576796826   -1.38167371579606
H           0.43638946491490   -2.46184061259560   -0.43559493363800
H           1.44608535157877   -1.93085305317534   -1.47272626282806
N           0.53039218429839    0.18692161211856    3.46336994172733
H           0.50383191439971    0.91288562073730    2.74799610424062
H           1.30691660986910    0.38996002419148    4.08112792355382
H          -0.31895961169338    0.27556123865985    4.00773584575611
