    26
        -50.47103218  Gyration_radius:  2.41661277248 Dipole_moment: 5.252
 S          -0.58972775083843    0.81759460988454   -0.93461386757364
O           0.66107465622158    0.91091561100036   -0.16128962472634
O          -1.68856365923986    1.44224396704545   -0.21719566256292
O          -0.87921199316554   -0.57793259718136   -1.24770957254106
O          -0.38664469410150    1.59616506441276   -2.24870781034268
H           0.56053210261887    1.38486546764641   -2.50897322332512
H          -1.61088598512887   -0.83560964054311    1.71086336861843
O           1.44439523448404   -1.22347276599738    1.30542084043322
H           1.67887709696826   -0.76351772320917    2.11464859144241
H           1.25945325426730   -0.52391497746396    0.65126182507597
O           2.03497202118637    0.82208448943326   -2.51969519434119
H           1.87883002614747   -0.12506876889500   -2.73033530190784
H           2.09226818390060    0.86341938637241   -1.55599518770856
O           1.02599534788545   -1.63189967097815   -2.74413134185290
H           0.61642553279958   -1.98764419337126   -3.53413362093788
H           0.29102446062987   -1.33862068159507   -2.16220721374063
O           0.44942714707638    1.48762547135945    2.40729184000850
H           0.47452942933275    2.43727436589603    2.53231462527500
H           0.57722813862930    1.34150266762893    1.43945824906863
O          -1.07809967361281   -2.05528769413940    0.96027593223501
H          -0.11963082059472   -2.04979998385367    1.16535227352769
H          -1.11876444327334   -1.69411728468336    0.04995311330885
N          -1.86298729469106    0.17086293332561    2.02458652165547
H          -2.69911688598016    0.20526198855189    2.59659231330658
H          -1.96994985959191    0.72046551786429    1.11572900953034
H          -1.04144956187581    0.60660443147349    2.49123909801941
