    26
        -50.46272823  Gyration_radius:  2.4624058824 Dipole_moment: 2.335
 S           1.23065232410237   -0.68580063208570    0.04143811738104
O           0.48919527731415   -0.97037389653301    1.26530721299091
O           1.10695951882994    0.71076017992185   -0.34059895908252
O           0.82970804174243   -1.57193575791351   -1.04982673701232
O           2.72642621398263   -0.96948680923744    0.37100694613983
H           3.14693902737427   -1.00390667794677   -0.51218920995209
H          -0.81466416277206   -1.50684896320233   -1.40710591502877
O          -1.16664094449007    1.42730513940040   -1.32890721645474
H          -0.27202087653140    1.18092184893671   -0.96628502754263
H          -1.00743192371075    2.11065366219469   -1.98138474880948
O          -2.27290916831907    1.39898704249781    1.15389753920232
H          -2.04923019997928    1.58943627188220    0.22283422404226
H          -1.43713403463637    1.62374376752822    1.66905260968707
O           3.16609891761595   -1.33511983642694   -2.20252532619309
H           3.52131938327755   -2.18653882648219   -2.46821967976425
H           2.20849552871881   -1.46850608194684   -2.04826847526306
O          -2.03919081777900   -1.06645000524320    1.06917282877928
H          -2.24955290956053    0.00623145186722    1.17578515835950
H          -1.04446359141830   -1.13667713377643    1.26746367136021
O          -1.76037602357742   -1.23774784227680   -1.42801810151670
H          -2.08073312712483   -1.24181573694522    0.04273856126558
H          -1.74438962255239   -0.28918295978360   -1.64616434001495
N           0.10593927088800    1.69502520489486    2.23348587394358
H           0.34632507688446    1.95751838220886    3.18089962847924
H           0.67304800132391    2.24369428323325    1.59799586456027
H           0.38763081039461    0.72611394522314    2.08841549044412
