    26
        -50.46272816  Gyration_radius:  2.46246867809 Dipole_moment: 2.334
 S          -0.98883506320090   -0.71010191931700    0.71064715120983
O           0.25260632782278   -0.25252388903282    1.31152973000828
O          -0.74850897195447   -1.38045152766161   -0.56273709054418
O          -1.94557026144984    0.38622804328457    0.57006343089961
O          -1.61687254787837   -1.78374271957372    1.64828925674940
H          -1.97907745204317   -1.25154865976362    2.38573543914127
H          -1.48329421667026    1.55146962059206   -0.55449476093337
O           2.23591954271208    0.26891751498440   -1.83962193457810
H           2.31783321935561   -0.59473011266884   -1.32809412547163
H           2.12969604449838    0.95481488530722   -1.15305041437972
O          -2.68602063560652    0.16213192827196    3.06889148820923
H          -3.64183032331622    0.16154144908574    3.15909734709231
H          -2.49037523965314    0.52358406114859    2.18022033835413
O          -0.13773975181536    0.10028602760700   -2.53110339695932
H          -0.44997465608129   -0.59051864708240   -1.85347156856763
H           0.94293381676281    0.17077626447893   -2.35017888622034
O           1.35744813971720    1.80909376507109    0.22111107069497
H           0.94956985759096    1.02204115989960    0.67570945512924
H           1.79199192355275    2.31491860458690    0.90912682772569
O          -0.95964807747864    2.07501021599911   -1.20170148067421
H          -0.13611962173887    2.29796135538740   -0.73293323581545
H          -0.52685545178938    0.98832630862818   -2.14855836633193
N           2.06027672082223   -1.87654515530117   -0.32994948983053
H           1.04554427920253   -1.94660394829586   -0.39746498622308
H           2.25352905402418   -1.60393697520626    0.62650635253911
H           2.45337331461508   -2.79639765040636   -0.48356812122336
