    26
        -50.45534184  Gyration_radius:  2.38255855594 Dipole_moment: 5.053
 S           0.61542368690681   -0.68722526456561    0.89462480132176
O          -0.06216706965643   -0.43767103005679    2.15806257685753
O           1.98611841092898   -0.23983924527425    0.85620259122978
O          -0.19549704328493    0.18399589108900   -0.16496874523088
O           0.43643508587846   -2.05575767157859    0.42238379931502
H          -0.64758322125336   -2.17881081698684   -0.49163786111825
H           0.17716339678466    1.10079439073479   -0.18089145642709
O           1.26348368446831    1.84677499213475    2.49744274242121
H           2.15233480446995    1.48272553893295    2.43760807850689
H           0.69029315987977    1.05219635186881    2.53011114219406
O          -0.22757524821603   -0.64669531729930   -2.88065321756675
H           0.55862281043955   -0.26090293357829   -2.42192600557594
H           0.12630813886527   -1.26064999190860   -3.52766961958202
O          -1.49351022256790   -2.00578818245519   -1.09319818224159
H          -2.06340767743921   -1.45401989282116   -0.37313520391810
H          -1.11451854195690   -1.38371331409519   -1.80757933396871
O           2.04108757450937    0.29504151498779   -1.76390237107993
H           2.16333105797224   -0.02244486161561   -0.84691887469918
H           2.00638330669975    1.25301294946876   -1.68551554763609
O           0.83634714246749    2.58295304842173    0.00328395982903
H           1.07993901949928    2.42107138709926    0.95365271960549
H           0.20283278695397    3.30312925405118    0.00850471762631
N          -2.58086610405997   -0.83686441411488    0.88078261072697
H          -3.23137233615888   -1.40826167251283    1.40560106221798
H          -2.99015402723059    0.07903021021270    0.74884417453949
H          -1.72945257493547   -0.72208091010154    1.44089145264379
