    26
        -50.46018704  Gyration_radius:  2.41849544764 Dipole_moment: 5.760
 S           0.63809846731015    0.36587734653480    0.10059364024541
O           0.72507929123708    1.16125615074396   -1.11002064004367
O           1.84139930929381   -0.39264108741489    0.39026374927827
O           0.26174992893326    1.24537370030622    1.25301330619348
O          -0.51242035182374   -0.62903097410970   -0.02306828107764
O          -0.48221973602033    0.38368018080664   -3.28319308021833
H           0.12940071491756    0.83469472135024   -2.65643457676011
H          -0.16425264519689   -0.53788262921928   -3.25415870282130
O           2.05931521092836   -1.69157155478047    2.61154374514373
H           2.06427040256078   -1.27760016231830    1.70435359617216
H           2.80890228088459   -1.30792012535271    3.06977899366268
O           0.77347095358375   -1.74240901525635   -2.11773394630311
H           0.29299245886119   -1.50794286312420   -1.30645741420732
H           1.69162199844267   -1.54774308836394   -1.91660537426966
O          -1.39861040594103    2.66271023484537   -0.23996886716741
H          -0.79014781525746    3.07391456029824   -0.86142755410552
H          -0.80644798504359    2.21794638158116    0.41091923951799
O          -2.16590977117710    0.51283364329232   -1.42028630587687
H          -1.61611486185058    0.47460921461861   -2.31846506225893
H          -1.50728326162457   -0.07509069073638   -0.77174280820026
H          -2.02367558746303    1.44459912101937   -1.02783580925466
N          -0.39380939455311   -0.75442186422056    2.60778519415453
H          -0.12717738656179    0.24641280084256    2.20654798910809
H          -1.06910711584337   -0.75341869417983    3.36390122437648
H          -0.75164568191849   -1.18472660390897    1.74039612756763
H           0.52252099178859   -1.22150869922571    2.84830162882240
