    26
        -50.45382988  Gyration_radius:  2.45065234686 Dipole_moment: 4.814
 S           1.47845925273979    0.24373799292918   -0.98776962923578
O           0.21695520232438    0.56995540683530   -1.61600563450165
O           2.15493885147935   -0.87910601237117   -1.55088829683487
O           1.21829385238696    0.00696259634595    0.52081618797856
O           2.37885466617447    1.46988309325658   -0.96783744489436
H           1.76276059123175    2.21118449886821   -0.62456398580144
H           0.46206866813765   -0.67678149878915    0.67308587905466
O          -0.18761354676187    0.22535830573615    3.00819265635883
H          -0.50766070981028   -0.60732417001950    2.64171393644457
H           0.72504233376956    0.30828666102509    2.71745368502063
O          -1.22442104439937    2.03596120001072    1.23577230841465
H          -0.90229188260618    1.50807872076345    1.99166765998296
H          -1.70363480399440    1.41626242869935    0.66596998842732
O          -2.14105379348716    0.12246491002921   -0.60360427205895
H          -1.28448846434168    0.30760732426098   -1.05912075095383
H          -2.82594235954933    0.18238800599108   -1.27077957082137
O          -0.67598655500646   -1.64116798515446    0.84040957240899
H          -1.40931198055085   -1.15154304706798    0.42653244575949
H          -0.37725657798778   -2.31340883750013    0.16099610335781
O           0.65586183936576    3.15263408352545   -0.21165801507337
H           0.17040649467014    3.35413143799829   -1.01503507706890
H          -0.01394009617516    2.75081836552658    0.41128633054038
N           0.34893552310780   -3.06417956888227   -1.13335349544118
H          -0.20919416499034   -3.23028893845300   -1.96182375085019
H           0.82910751676146   -3.92788910874166   -0.91206286049329
H           1.06111117753087   -2.37402585480977   -1.37939400974089
