    26
        -50.44388356  Gyration_radius:  2.65256132393 Dipole_moment: 1.807
 S          -1.00741094556400    1.20120408843973    0.49618355114322
O           0.37592875603695    1.10290880501478    0.08960581643814
O          -1.22852378574349    1.97151560414461    1.67633104659119
O          -1.54847517856482   -0.24678220546400    0.69030471118878
O          -1.86799596146406    1.73725096661357   -0.63869577609676
H          -1.84192135451242    1.06410972622147   -1.41726050235958
H          -0.80347828339430   -0.76034864509550    1.10428418249274
O           0.68507122043128   -0.99440808309301    1.76832607389738
H           1.02056102575005   -0.24994652709314    1.24469248138210
H           0.49405119703099   -0.60549615520870    2.66698118057061
O          -1.78139751516295    0.10837158182270   -2.55279086425695
H          -0.91775371949254    0.22534465935525   -3.04579614964310
H          -2.48428416679283    0.25590442824459   -3.18895771594334
O           0.49288557488947    0.51603028670605   -3.75707411238455
H           1.09203147704052    0.09867949219955   -3.08224054615541
H           0.74810632384087    1.43986201132721   -3.78774291333271
O           1.30792501889232   -2.69078414756721   -0.36050242023332
H           2.06779927205045   -3.24290541200187   -0.16880872351520
H           1.04121012913801   -2.28123486563425    0.47576229252801
O           1.86795093004779   -0.33811537996763   -1.69744369493708
H           1.42739628132272    0.25738870916386   -1.06980198296603
H           1.65799135275716   -1.23865941261970   -1.39054092912172
N          -0.07827611661178    0.46077319027734    3.84650364166217
H          -0.53318707487718    1.12693879467842    3.22036156020119
H           0.59864495464153    0.97380675984785    4.39785950419369
H          -0.78484942175325    0.10859170974750    4.48046028856567
