    26
        -50.46654157  Gyration_radius:  2.46910215342 Dipole_moment: 5.997
 S          -1.12368003914105   -0.03655123732961    0.18987717691066
O          -0.63365061706302   -0.10566271472876    1.57435912354414
O          -0.51477186873128   -1.10309187777858   -0.60817544414549
O          -0.89388817494243    1.26945453460182   -0.39247174576876
O          -2.64035083051121   -0.30672617616226    0.29007407091803
H          -3.01182985256694   -0.24292769577479   -0.63340883896459
H           0.79096954068538    1.48343014857346   -0.48694875132265
O           2.13081523004454   -1.14491429157196   -0.57440910080590
H           1.18570909251915   -1.31400746287231   -0.77883325856188
H           2.02639089398755   -1.26295038908401    0.88128726109277
O          -3.44840582759881   -0.26847308280479   -2.17159850366755
H          -2.58520045478987   -0.05870061035806   -2.61372467722846
H          -3.68093247254279   -1.15862115264473   -2.44433622589788
O          -0.95814291415748    0.14194525192133   -2.90538745751128
H          -0.79296286925934    1.03008017074110   -2.57043830360387
H          -0.68447543722622   -0.44321826541282   -2.17074967409361
O           1.25604440581538    1.59342872356069    2.39049308594171
H           0.96894187331399    2.46085955788217    2.67884275789498
H           0.44277522837457    1.11086844909651    2.12909599345008
O           1.75940646797829    1.44920256389868   -0.34868908498551
H           2.20668198117500   -0.16217238821025   -0.66860825018730
H           1.87310940495495    1.66432049213642    0.58931792837544
N           1.69317526952530   -1.19612273394284    1.93810303265834
H           2.16216685652530   -0.42135152925637    2.40750798098359
H           1.80451393047324   -2.06491624485556    2.44842291219762
H           0.66759118320262   -0.91318203963339    1.85039798270326
