    26
        -50.45247188  Gyration_radius:  2.51425682657 Dipole_moment: 4.190
 S          -0.24787498007978    0.91927582786989    0.47823518028902
O           0.66521440025031    0.17178486201452   -0.36825461214011
O          -0.69659860173587    0.21749087859807    1.63598103454728
O          -1.43928377027599    1.36071553017941   -0.38029123093176
O           0.42237411928379    2.22506542305849    0.89503344592010
H           0.62272019793862    2.79738855119915    0.07371741889975
H          -2.19750415452999    0.65026261502994   -0.23093757062424
O          -1.02114251278235   -2.04321551223008   -0.52792711577083
H          -0.82395933660462   -2.44406409281919    0.35545667600910
H          -0.31466789110869   -1.39850399473330   -0.66278873717829
O          -3.01202382315610   -0.50907383365912    0.07359841598755
H          -2.37583353565786   -1.22219221426555   -0.23977498078838
H          -3.01343830377269   -0.56982269220088    1.03396071932761
O           0.32434227640483    1.42932124844811   -2.70036206052069
H          -0.62749029564404    1.38410934765352   -2.82111953101141
H           0.52968043645015    0.83002356313359   -1.95759911580412
O          -0.30076983076178   -2.52506105022816    1.97541926975305
H           0.66335999750490   -2.53014349861370    1.80674364840029
H          -0.50334796864601   -1.60132013417743    2.17696089732414
O           0.96477201175953    3.50815558094960   -1.23063425832080
H           0.72016047536495    2.83372729703545   -1.91736901108128
H           1.90988906013121    3.65573015323826   -1.31299122820828
N           2.24166639760025   -1.92101628655385    1.09655178610957
H           2.72991691904408   -2.53138298000918    0.45302815386499
H           2.92507872468479   -1.53701334432864    1.73672869565747
H           1.85475999827423   -1.15024124442330    0.55863410031740
