    26
        -50.44455644  Gyration_radius:  2.506050713 Dipole_moment: 2.392
 S          -1.18927607274253    0.00830271188280    0.69759893001535
O          -0.50673279287075    0.65675677171854    1.77817024703932
O          -2.16758999988290   -0.96147550677375    1.09541284835194
O          -0.16452328145840   -0.65266146796809   -0.26035184089899
O          -1.79672223937189    1.07891675612624   -0.21421944217490
H          -2.02041355684232    0.64762420056075   -1.12484854200956
H           0.44673603788171   -1.26273923550995    0.24798790671662
O           1.21703502426656   -2.23107704201467    1.23623709963410
H           0.62945063227301   -2.15441387030080    2.03376501073992
H           1.14232493628876   -3.13858177044213    0.93254808518033
O          -2.17268172191727    0.13068463761785   -2.51525852299184
H          -1.22720020369346    0.16219671920894   -2.82970614273256
H          -2.66093084991702    0.76706064280613   -3.04374633946643
O           0.31306346887810    0.57330588729759   -3.22782886339060
H           0.53537719178842    1.15688723850551   -3.95526144393441
H           0.59372642336243    1.04796059435023   -2.40424310818066
O          -0.60609085687212   -1.82144651737363    3.08920390340143
H          -1.35987172418724   -1.70396704037945    2.48107870624267
H          -0.42697574264797   -0.93451758573569    3.41741546771523
O           0.81262504695019    2.02058656265862   -1.06966592106987
H           1.47347101517488    1.63549256017535   -0.44742583722379
H          -0.02892117850007    1.97151462198299   -0.60537673775092
N           2.25781382041498    0.87557444194766    0.92886146304444
H           2.53796483178878   -0.09089784614050    0.81452762534360
H           1.39723220056814    0.87519194419059    1.47165380489028
H           2.97110958193355    1.34372159093719    1.47347165342833
