    26
        -50.45340657  Gyration_radius:  2.44814479835 Dipole_moment: 5.196
 S          -1.17880755422555    0.50085636800189   -1.49253937781482
O          -2.31946751246531   -0.17156863883286   -2.01039243928125
O           0.03901403673015   -0.30764433674187   -1.49646692275309
O          -1.41289589889246    0.97010587254465   -0.04660306094462
O          -0.90033890957709    1.79560797435765   -2.23978355875348
H           0.07157762309753    2.06449280077462   -2.01290436786420
H          -1.70794187966768    0.15198452253125    0.56324964311450
O           0.44115696081243   -1.24663592135960    2.55341148765577
H           0.65408130497525   -2.09772845405877    2.93901297107424
H           1.02160252749854   -1.13407749922555    1.77057203810124
O          -1.36497031557448   -2.52232931808271   -0.83655670176302
H          -0.73919874472739   -1.86290866929417   -1.18147888854070
H          -2.15002247966938   -2.40883451027141   -1.38132887779767
O           1.49407364690079    2.19217236154264   -1.57425411967835
H           1.84580174636452    1.32405725152852   -1.79061989336510
H           1.43737542345098    2.22144865483674   -0.56771153943115
O          -1.92231556057010   -1.04443645179129    1.31381896526059
H          -1.13276626107822   -1.10419358921389    1.89942836455079
H          -1.80745758497873   -1.74342680066339    0.62810107289446
O           1.87830446607030   -0.93622538848520    0.29468804472662
H           2.27886809321353   -1.72538806250319   -0.07484027711714
H           1.20161003224152   -0.65140806823463   -0.35665166506312
N           1.15575684304713    2.00789231429091    1.03165836467086
H           0.15992542291500    1.81122363218748    1.01688435658729
H           1.32645864076966    2.74549006038037    1.70218082697320
H           1.63057594330577    1.17147391576956    1.34912556454108
