    26
        -50.45059577  Gyration_radius:  2.42600730572 Dipole_moment: 3.381
 S          -1.67745179019766   -0.92837181654204   -0.06820260213309
O          -1.22324082259135    0.12608934952414    0.81898972051087
O          -2.01452000719789   -2.14912501442471    0.58382792890014
O          -0.53975725074335   -1.19175374463573   -1.10809342983894
O          -2.79099796848569   -0.41564660126497   -0.95376412171993
H          -2.48025099718618    0.55313465089482   -1.21585394734485
H           0.29723223160424   -1.47022367020929   -0.63821809401085
O           1.52209732283217   -1.91345294974543    0.29215820275785
H           1.09450535294984   -1.83552651894952    1.18708907288394
H           1.77100725019603   -2.83356225882952    0.18140040039254
O          -1.75937071741467    1.81652197578384   -1.33706710284095
H          -1.40247705015013    1.85507126443192   -0.44258072236357
H          -0.97564014373588    1.62986936641104   -1.93583879047017
O           0.33060935891898    1.02701523336047   -2.67348471765378
H           0.09828921840418    0.10436898099729   -2.80854978725610
H           1.08750614381903    1.01248533593543   -2.03960936536114
O          -0.00497691135932   -1.66871965375991    2.41181712668027
H          -0.42393679280949   -0.85018177725028    2.09602741484954
H          -0.68640189990383   -2.33770411084006    2.27481639387978
O           2.17780341235320    0.72794799542282   -0.76915176586812
H           2.20292330814932   -0.18706374754716   -0.47092959846029
H           1.86565764782459    1.24649790994251    0.00546923432188
N           1.04596403340261    1.87164708199565    1.43862154431481
H           0.17834387844972    1.34794233479804    1.36571685343537
H           0.81718117000310    2.85574828947700    1.49650635660811
H           1.48990202290601    1.60699209501633    2.30890382580978
