    26
        -50.46175346  Gyration_radius:  2.40940210702 Dipole_moment: 5.657
 S          -0.69839255240775    0.12152233124307   -1.26215797609866
O          -0.49324136462187   -1.31915783273011   -1.14787371121202
O          -0.44121804583814    0.77944082404661    0.02616251783677
O          -2.16828425161945    0.38850401342422   -1.63851118775251
O           0.13445806002936    0.70548688709131   -2.30471583401230
H           1.56214441613502    0.69701308906502   -1.95219945941608
H          -2.68667464507212    0.12731085125913   -0.82377201449991
O          -1.60278285498114   -2.24799630225209    1.06755038278207
H          -1.21156285206968   -2.11762597019049    0.17955430491824
H          -0.92920303080485   -1.90439307406159    1.67365918382507
O           2.46890519828540    0.68258520103175   -1.44189671718429
H           2.31597581768362    1.47620599356294   -0.72502745949711
H           2.40982892881139   -0.20117744983950   -0.90711374111541
O          -3.41344711377925   -0.45153915706196    0.46412672058518
H          -4.20456700313299   -0.92380262700999    0.19565090772545
H          -2.78407339351238   -1.14360105239889    0.80701823168273
O           0.42189437370003   -0.58909707368083    2.06438172892822
H           0.20531594814852   -0.11989893975700    2.87094923216155
H           0.04572560626733   -0.05418555379407    1.32082703991264
O           1.92801913239952   -1.41377801054151   -0.13894507348564
H           1.69767026444397   -1.24868910827743    0.78720160613022
H           1.06339579875550   -1.56541182915740   -0.58586770307752
N           1.75477874889832    2.44042324784231    0.21649763945743
H           1.66701911548713    3.37822720248322   -0.15125121297164
H           2.13841843716886    2.48908033842138    1.15091149689353
H           0.81989726172545    2.01455401095722    0.25484112720061
