    26
        -50.44731479  Gyration_radius:  2.59793490051 Dipole_moment: 1.926
 S          -0.09905952854692   -0.41498698307782    1.77545690913216
O           0.85085725257727   -0.10015333148105    0.72986475099675
O           0.29162332659540   -1.52823496726003    2.58823043271135
O          -1.47546537368974   -0.69415298419211    1.11579399752819
O          -0.37321132556744    0.79265100430067    2.63758682337811
H          -0.78569139014622    1.58535520927537    2.06111228382362
H          -1.39430569310311   -1.48760650736240    0.51610047699259
O          -1.05101098863802   -2.79891798299359   -0.34048343673273
H          -0.12319362405338   -3.00679174156697   -0.03721245524003
H          -1.59757266780564   -3.54175713194843   -0.07643839347847
O          -1.22657082542760    2.69628333363691    1.29553948498659
H          -0.53889820375096    2.70689322965708    0.51608085088007
H          -1.07976548408278    3.49174268218313    1.81238760902316
O          -0.11307076654576    1.46173483257551   -3.09397341257576
H           0.20733503905376    1.41689017043188   -3.99549508049522
H           0.05565200479383    0.58059630755218   -2.70240787787869
O           0.46040139415176   -0.88641350371305   -1.84143663562834
H          -0.24189491244844   -1.53589269628479   -1.73598756963934
H           0.65985888772538   -0.56655054770636   -0.94406130708948
O           1.35132975676095   -3.01165098115403    0.65975590853344
H           1.91871506165566   -2.37705944802941    0.21308747746252
H           1.10403298204478   -2.59499132235335    1.50923435201636
N           0.60523925959717    2.54563541695075   -0.49658581908018
H           0.99797458869449    1.66765468780205   -0.16501799652585
H           1.35208580657751    3.22466026329910   -0.56660072203970
H           0.24460540352084    2.37506298141261   -1.43453068107668
