    26
        -50.45450035  Gyration_radius:  2.46068547326 Dipole_moment: 2.460
 S           0.40694215398415   -1.07299003411969   -0.84638686355211
O          -0.01362101747825   -1.05808475385179   -2.21139612887181
O          -0.66871915214050   -1.27112789318086    0.11114986777014
O           1.09511398743445    0.26432097433593   -0.49448652742171
O           1.48989478678044   -2.09906489309719   -0.61380034355358
H           1.51589722678090   -2.26148557214487    0.43106952185213
H           0.41949436276370    1.02277775985555   -0.68922515738906
O           1.32911529135887   -2.30963202730253    1.85316322946098
H           1.63381086364026   -1.38859208280871    2.16522960439815
H           0.36767375474848   -2.29965854680341    1.90502602462285
O          -0.45474521863924    1.22818726981055   -3.57412381507442
H          -0.20772038798424    0.34838997574144   -3.23186813455284
H          -1.25624455938566    1.09562772543853   -4.08435855982150
O          -0.80899148151965    0.87645753613968    1.83442305507749
H          -0.81086605381700    0.07401280418348    1.28691595729550
H          -0.79466911536534    1.61906693134658    1.22390841726726
O          -0.70693176798693    1.94362812078932   -1.02934404366593
H          -1.54931276851766    1.44677186369523   -0.90434789684711
H          -0.58431318047350    1.96148171413259   -2.00533739750398
O          -2.74581292881750    0.26450920076940   -0.61950484337981
H          -3.26080440157373    0.36635490823613    0.18467727417182
H          -2.12956835946341   -0.47373569568532   -0.45879359948611
N           1.92381464058571    0.16222416732450    2.43901204816049
H           2.47630364658990    0.46862035874481    3.22869046855544
H           0.99200474818704    0.57152328318339    2.51079121650177
H           2.34225495020820    0.52041691521018    1.58891664603939
