    26
        -50.44813694  Gyration_radius:  2.4850677886 Dipole_moment: 3.199
 S           0.81256767536113    0.25236178607875   -0.03837782544682
O           0.49815595107432    1.66668839929282    0.08674847057587
O           1.17044245160846   -0.12884619503430   -1.37191397467379
O          -0.37809344252236   -0.54124343444213    0.47367519729496
O           1.93744664189892   -0.09390083980978    0.92925197746080
H           1.51242672598614   -0.29446751725566    1.84617567537166
H          -1.23256541148676   -0.52811188080199   -0.21681960180032
O          -0.27770560805828    1.95953094106694    2.60438982032337
H          -0.02913997648354    1.93257513774493    1.65662483236266
H           0.23384236479175    2.66922298565095    2.99812026845811
O          -0.65892418968007   -0.74605886077758   -3.23980064846338
H           0.12155853501827   -0.61722320251453   -2.66898174886186
H          -0.65666029548115   -0.01738723921820   -3.86411763917939
O          -1.77185794451189    2.25669599170910   -1.19037693477104
H          -0.88003535707041    2.15658095401061   -0.80102103660491
H          -2.25085331592273    2.85735032675191   -0.61587250572811
O           0.64398850878838   -0.49610488234589    3.05613118945970
H          -0.00291067117285   -1.11759899882849    2.70566544823866
H           0.19948736525323    0.38440811778811    3.07809249566047
O          -2.22157779570888   -0.35709251642141   -1.14721370074475
H          -2.26314698953023    0.62606654574223   -1.21961371114491
H          -1.79826631787959   -0.66123094631648   -1.98873935300249
N           1.58962870257303   -2.86495228028802   -0.13001951123958
H           2.35821118651783   -2.67369623965105    0.50152197529976
H           1.44930701941048   -2.02750920987497   -0.68129490558962
H           1.89467419709627   -3.59605695215682   -0.76223423331796
