    26
        -50.46254891  Gyration_radius:  2.38485026563 Dipole_moment: 4.026
 S           1.39662825903535    0.59582911391488    0.49286458809921
O           0.08136307558773    0.28343808850185    1.06943813897540
O           1.93645310118477    1.83123281539997    0.99145026243534
O           1.13983871054437    0.76209554030284   -1.06320164319687
O           2.28550654122652   -0.55193195690597    0.57604620966605
H           1.71258999800493   -1.80193348168011    0.10951974867340
H           0.44247346352460    1.46102737250320   -1.14216676794745
O           1.13826076266567   -2.61151206618786   -0.21732496509311
H           0.71250612965620   -2.28764715341108   -1.09774930133212
H           0.32450435210541   -2.63400931561665    0.50178628243365
O           0.02971549133673   -1.49576330472683   -2.21304286123348
H          -0.77630119440261   -1.11502094743565   -1.78573689253684
H           0.63255749744368   -0.74441485438804   -2.29323184656553
O          -0.77330846421881    2.54111834666681   -1.13621467101955
H          -0.54520330808680    3.32998117828912   -1.63155797921569
H          -0.72494136626208    2.79969224558638   -0.17089623157279
O          -1.76223780889312   -0.16237475727233   -0.77057314620321
H          -1.90689298052278    0.70147244590492   -1.16954790854151
H          -1.13181499034004    0.00889246922574   -0.03654563170851
O          -0.35128974286401    3.01428694347521    1.38678822581997
H          -0.78775364226461    2.30888170526884    1.87248512581103
H           0.58954184345772    2.72244907293632    1.33410643264755
N          -0.74006321059592   -2.35093722123229    1.44128384838531
H          -0.52563998204555   -1.35923240606079    1.58525548178948
H          -0.73141465778198   -2.82946056629117    2.33162991858164
H          -1.66507787751794   -2.41615928677514    1.03513556286838
