    26
        -50.47202833  Gyration_radius:  2.47675649591 Dipole_moment: 4.472
 S          -0.66816113679264   -1.32102560984496   -0.39900361750822
O          -1.49381825103870   -0.30547587905131   -1.00894379000060
O          -0.37155403860429   -0.99847707152396    1.00741634308779
O           0.57596265868250   -1.56182942751145   -1.12395334969946
O          -1.49067533475630   -2.64485284519711   -0.39489988461613
H          -0.82922255025558   -3.32791828950210   -0.16410153395126
H           1.64490137902240   -0.23317579120420   -1.45778695767708
O           0.77550996496109   -3.98877162909701   -0.17296151471865
H           0.97674770748882   -3.10520473459156   -0.54539389010726
H           0.95832457598526   -4.62533117632239   -0.86781779402909
O           2.04312528531440    0.65701451361533   -1.37441478761069
H           1.83058035638801    0.85773169222577    0.11028864179906
H           1.34298896858181    1.26363332132807   -1.71242642133698
O          -0.53792646265410    2.79247827535751    1.06623825873126
H          -0.84343070082846    3.58621049666613    1.50645908978349
H          -1.25882568809427    2.10912129116237    1.18104501423538
O          -2.26968630451744    0.84432602251396    1.28098700357468
H          -2.48703616827938    0.65530689281469    0.35578051558434
H          -1.66761260451583    0.10882251403218    1.49832716380950
O          -0.22678181436596    1.99158718913950   -1.67144967389347
H          -0.76869877049089    1.18461310119150   -1.59287445124998
H          -0.37163816330051    2.48374008710694   -0.85220595543266
N           1.41590365308890    0.89972890729045    1.11720074457887
H           0.75034356900367    0.07231475518839    1.17176286645407
H           0.84040605304517    1.75803353677208    1.20838981668433
H           2.13027383696384    0.84739986754370    1.83433818354143
