    26
        -50.46255797  Gyration_radius:  2.3861330765 Dipole_moment: 3.883
 S           0.27898567137594   -0.60757570138750    0.52242485422988
O           1.43291335030775   -0.07526580942099   -0.21062367489882
O           0.13281133452993   -2.03745102320056    0.38187307009558
O          -0.93588118590742    0.11437068378994    0.14291232865775
O           0.54856634950200   -0.27281320032075    2.02416218918818
H          -0.22432948002694   -0.72665821203168    2.47597504224001
H          -1.34456578314714   -0.04558305665290   -1.56696834194630
O           0.76130471295085    1.52360408938994   -2.08253664305979
H           0.28950227050917    2.19872000992784   -1.40606698342555
H           1.21034727693029    0.88767204460533   -1.43130401779567
O          -1.11107695862174   -0.05570392585088   -2.51799894183875
H          -0.04825872094916    0.92580866992473   -2.44736748730192
H          -0.63861943865321   -0.91007952777914   -2.64570186967819
O           0.47774866206879   -2.16441310331616   -2.24626097756366
H           0.33377721191427   -2.27615933070493   -1.28451753873164
H           1.42041973742065   -2.02201280612398   -2.35242737066690
O           1.78613638999525    2.15151320476183    1.29478965904018
H           1.63163526164026    1.87698272012082    2.20138514963736
H           1.87529820384099    1.32263052184263    0.79202458564023
O          -0.36526873729014    2.69464324710574   -0.19219629382136
H          -0.78897089008733    1.84265591242052    0.04904677429619
H           0.39524360693880    2.78054772676056    0.42435631752865
N          -1.58307256814412   -1.62189215044011    2.59797991324978
H          -1.27885692450811   -2.21739131619901    1.83226398348547
H          -2.37599020901556   -1.08378766317628    2.27261896132957
H          -1.87979914355700   -2.20236202407333    3.37215730210595
