    26
        -50.46506165  Gyration_radius:  2.50640469932 Dipole_moment: 5.391
 S          -0.06771327204454   -0.29141040626678    1.23824055509923
O          -0.76358463489464   -1.54488324789504    0.96976487158625
O          -0.95871853129729    0.84166567264983    1.37544769650058
O           0.96081017326884   -0.06836038154438    0.20826349857961
O           0.69085877565988   -0.47619720717342    2.58184868002851
H           0.93613534195715    0.45596383274163    2.85311833688070
H           1.25563632841399   -1.44605849204205   -0.53970354542074
O          -0.43124747477713   -2.18341792695364   -2.96480559246475
H          -0.92658689760872   -1.44399355681384   -2.52524728866999
H          -1.09844933157503   -2.80706508883522   -3.25633748092379
O           1.51071836776255    2.54319275393936    0.32297635503483
H           1.46588920682023    1.57953683094243    0.18079812011563
H           0.77106792814485    2.88995637308302   -0.18842470997402
O          -1.69955917109705   -0.46445627908256   -1.43219306453739
H          -1.46599261858628    0.48162818696442   -1.42089370335708
H          -1.54437738982117   -0.79350102540071   -0.53462606221111
O          -1.18163804023375    2.20301477459341   -0.84512542037862
H          -2.01440735779109    2.67842283270262   -0.82500830611962
H          -1.09761187829037    1.76117228204964    0.03106144804744
O           0.97990808278791    2.07207825963242    2.91547198731702
H           1.33624387060257    2.37264132536379    2.04747155763693
H           0.02560822560192    2.17668686894768    2.83541654167283
N           0.94516718898198   -2.44349715799346   -0.73121304591996
H           0.18540898328334   -2.49019731853836   -0.00404950931709
H           1.68305646693956   -3.12557001955931   -0.59822950022100
H           0.50337765756275   -2.47735188541459   -1.69402243906924
