    26
        -50.45100475  Gyration_radius:  2.52634763595 Dipole_moment: 1.966
 S          -0.14737431353892   -1.58526310703462   -0.17648258394014
O          -1.43747240819641   -2.15054100856852   -0.42185588958857
O          -0.08105714284560   -0.76758306182893    1.01143845199963
O           0.31013812279976   -0.73771215249297   -1.39316222086562
O           0.91462450436882   -2.66935091824947   -0.13650460404846
H           1.81117487684171   -2.18843066696325   -0.28490711499931
H          -0.29763284042314    0.06549119332625   -1.51953709206650
O           3.17706032692007    0.99456923891040    0.44553041800992
H           3.41835738475464    0.94184301432399    1.37171317233579
H           2.28186080088470    1.43430463199366    0.41852923699368
O          -3.16738910151859   -0.07075202926768   -0.42779784139503
H          -3.08742566683600    0.15702306175000    0.52023329456879
H          -2.76392526644441   -0.95369889774534   -0.50170008886745
O          -1.31727483850818    1.20246631090057   -1.68600106880976
H          -1.59143220387968    1.27476006825458   -2.60277936239069
H          -2.10646530494827    0.81429324296614   -1.19077062647676
O          -2.35900297081683    0.12377972627251    2.14553210678808
H          -2.69265808335827   -0.56091786742827    2.72769514437547
H          -1.48665464562034   -0.18468044262421    1.83508922902893
O           3.00653569609434   -1.37308904800882   -0.66776049459582
H           2.85591574009192   -1.15894106961261   -1.59188284277067
H           3.08686261923402   -0.49208745050415   -0.20467022882364
N           0.69716651690273    1.96672658852364    0.55130445869866
H           0.42001777805669    2.66230092313614    1.23281973963237
H           0.33227985553675    1.06905583375334    0.86310583210418
H           0.22377058444065    2.18643389621496   -0.31717903492462
