    26
        -50.45617908  Gyration_radius:  2.50867991724 Dipole_moment: 0.795
 S          -1.29054144493495    0.03229778913663    0.84909742360597
O          -2.52544774705804    0.52271404007488    0.31559139999690
O          -0.26851306296073    1.05086844739870    0.99081910201959
O          -0.73728318336546   -1.09697314112583   -0.03425148731686
O          -1.53980735303732   -0.64840776414886    2.18133417436687
H          -0.67699638023126   -1.14262482344278    2.47445182912901
H          -0.69845253875879   -0.78718501182284   -1.03236782405076
O           0.59420213260194   -1.74125285364166    2.92070173943063
H           0.64837702409998   -1.69699306595417    3.87804175871427
H           1.27995106573510   -1.08518320999723    2.56404413630510
O          -2.95941013532432    1.03813424482757   -2.25702895102816
H          -2.90281222892939    0.97482201856248   -1.28199435532555
H          -3.79561310537418    0.63777352859361   -2.50133261374636
O          -0.61154315211468   -0.19991382807007   -2.36616452696921
H          -0.00365952622207    0.55163371206773   -2.19706899597528
H          -1.49332704502959    0.21250462160641   -2.51547562694354
O           2.08868875958603    0.09271463457716    1.93509154750037
H           2.40680580549582   -0.24861935051151    1.06415112617790
H           1.33296075293519    0.65744164448360    1.70196859902010
O           0.79537432560438    1.81833785374937   -1.32037885307269
H           0.45865366729779    1.61149062623510   -0.42211574738625
H           0.54132799629750    2.72544889160327   -1.49962544038917
N           2.40429803008111   -0.76488543264899   -0.60314753277558
H           1.58837748918054   -1.36386623385284   -0.65643224336086
H           3.17016301475507   -1.23316776665302   -1.06992345106404
H           2.19422683966439    0.08289042896036   -1.11798518686272
