    26
        -50.45003874  Gyration_radius:  2.6791788605 Dipole_moment: 2.109
 S           0.85937051799199   -0.87818408435487    0.85937576277957
O          -0.08610144110117   -1.53550333204929   -0.01106723970575
O           0.57668885871285   -1.00125110999970    2.25534221461599
O           0.90819164530182    0.62123561440538    0.45694678107515
O           2.27669638740925   -1.36097768606938    0.60097017407047
H           2.54740085790288   -1.22656575348184   -0.39028397902585
H          -0.04723882368019    0.84656151647830    0.22359236122010
O          -1.57321615343092    0.75243528907641   -0.09446616399844
H          -1.54998674566825   -0.21131553897540   -0.17550286557688
H          -2.10082754404831    0.95294801482896    0.72112411317769
O          -2.79300794799581    1.26414686868814    2.18813319120915
H          -2.14603733960255    0.94427157169399    2.86035529856243
H          -2.92622091174742    2.19559198770948    2.37173585639825
O           2.87671645502354   -1.12767731717447   -1.82979649715013
H           3.38382235518843   -1.90211821339685   -2.08287214157850
H           1.96594064083878   -1.22532636369595   -2.26636083429521
O          -0.94079813409168    0.42890670461446    3.90895986035604
H          -1.20221803973784   -0.20285111446286    4.58165656913087
H          -0.30871885935357   -0.04751864020889    3.33401039263716
O           0.46695286577120   -1.37606160553523   -2.66072079720617
H           0.11514591771727   -1.60001114127101   -1.78166766825616
H           0.19853197122521   -0.43769637310519   -2.81315446322716
N          -0.08630856919795    1.27506073101357   -2.64539111838758
H           0.74238149554044    1.64884854715847   -2.19875085060872
H          -0.84541090849373    1.33914495955943   -1.97544956712885
H          -0.31174857050198    1.86390646855569   -3.43671840909007
