    26
        -50.46248719  Gyration_radius:  2.40582920418 Dipole_moment: 4.397
 S           0.73519476220001    0.47451620641042   -0.90480563757073
O           1.65787808688565    0.15851089384932    0.18734155411411
O          -0.01699049351014    1.68215477949272   -0.63061533380473
O          -0.14966137817205   -0.67571634973485   -1.13719370298376
O           1.55245708965237    0.71222526051873   -2.19782277240083
H           2.05968460793426   -0.13813272928495   -2.29237381065665
H          -0.28909277934554   -1.27648896482327    0.35912755035558
O          -0.30868374354410   -1.50159195011409    1.32348927892684
H           0.61300191782714   -1.44768102455266    1.59398300623296
O           0.86635007088200    1.88225015520030    1.98621169913540
H           0.63656557962667    2.61866377557849    1.41016759018728
H           1.29839107964737    1.23344482273241    1.37767400743737
O          -2.80719671097576   -0.70575489154894   -0.99988023907886
H          -2.97740571789856   -1.52921870736647   -0.53832989288277
H          -1.85271393915817   -0.71059475834552   -1.22240248190448
O          -2.42927304722084    1.53346158061651    0.34307543361807
H          -1.59017930095224    1.75483258294966   -0.13242612972781
H          -2.79343518494761    0.76324226786412   -0.15844933460636
O          -1.31416889825766    0.62550760653405    2.34537460315723
H          -0.44835409743701    1.18831697098488    2.34242355695868
H          -1.91393543065197    1.05098738826329    1.50474065997641
H          -1.01242044350624   -0.29482272870217    2.02700156042230
N           2.60073208153052   -1.64440395403925   -1.80881980911648
H           1.81422701654629   -2.27067243036826   -1.92329612788291
H           2.61486764772366   -1.33476792100869   -0.84179230867936
H           3.45416123512697   -2.14826787111113   -2.01240291921906
