    26
        -50.46277965  Gyration_radius:  2.44203168905 Dipole_moment: 2.175
 S           1.08505304651792   -0.72769243512405    0.19537744297191
O           0.34058737914583   -0.59776548478828    1.44862866633946
O           1.23327314894340    0.56947297269530   -0.45056580008307
O           0.45741521385613   -1.69416774396145   -0.69738471087614
O           2.49300053052915   -1.25298050619199    0.58600546300888
H           2.94364420299499   -1.29344378132369   -0.29487574262903
H          -1.00832215818139   -1.27774215929393   -1.10425728259375
O          -1.92754287933313   -0.94860060730002   -1.31401778594727
H          -2.28507492161201   -1.55490145150775   -1.96435438563726
O           0.22712591665287    1.76882665578639    2.51363138809022
H           0.43462665067375    0.89208937167778    2.10058152216269
H           0.18599660356579    1.61545924047709    3.45970074846841
O          -2.29257986642714   -0.54373540943690    1.34516718392937
H          -2.43060538718057   -0.80410895381941    0.41577906307448
H          -1.34140748842771   -0.73737866535378    1.51168370246894
O          -1.94237772405700    1.93804471018107    1.18861224180318
H          -1.09942699167719    2.03061823490377    1.76117336940145
H          -2.22991072753796    0.93519835272452    1.32456092937003
O          -1.04057530915367    1.62963433059239   -1.11322089593933
H          -0.11114215613480    1.34059512967751   -0.91258363179316
H          -1.49366451586622    0.81593982918174   -1.39906437730810
H          -1.58870060913039    1.93776501621500    0.17823658652566
N           2.97027796805703   -1.08274787701868   -1.96872617028100
H           2.62280843865226   -0.13085978476755   -1.91326273153545
H           2.16947236627182   -1.67355853963198   -2.16175967889636
H           3.62804926885318   -1.15396041458733   -2.73506513409760
