    26
        -50.45920947  Gyration_radius:  2.4537631207 Dipole_moment: 2.432
 S          -1.09574771435165   -0.06368373609326    1.33034305969646
O          -1.19336681668683   -0.84407223978009    0.09963075036907
O          -1.11886044097030    1.35466088575620    1.09232299064304
O           0.04664931182138   -0.50977120962528    2.12625708387808
O          -2.38013433778340   -0.41217180912456    2.18152143671155
H          -2.25554869664705   -1.33168311931963    2.39346836691406
H           1.13393596945816    0.38298896529570    1.23884905909637
O           1.52087138429111    0.99011559715676    0.57222481270216
H           0.87242613353672    1.70268729819160    0.53975852665061
O           0.80043507925333   -2.42685685068851   -0.72124314162049
H          -0.05316586248630   -2.03279802256266   -0.44694584931795
H           1.25775289996987   -2.64456891903349    0.11880521885773
O           1.73788463285372   -2.53838082681492    1.78201378527609
H           2.59667617900484   -2.22021703487710    2.06536515986548
H           1.09322834937487   -1.84540122141797    2.03002756341634
O          -0.75872924390678    0.35791881267188   -2.24000641220164
H          -1.12015670622556   -0.11667102071993   -1.46117702436464
H          -0.93018666272612    1.32284205512723   -2.05455887780486
O           1.57400301682259   -0.25111351057218   -1.68426423115273
H           1.68713204626438    0.27982319062212   -0.82826957979864
H           1.37496780195176   -1.23570666945415   -1.36051918547507
H           0.59940661994200    0.05672706445525   -2.06004956221888
N          -1.26657832962791    2.81036799973723   -1.35285401243584
H          -0.61077276327995    3.58139793378069   -1.35226589668289
H          -1.33894964308488    2.45394516684292   -0.39888413129637
H          -2.17317220677819    3.17962121039045   -1.60954989969708
