    26
        -50.45920924  Gyration_radius:  2.45393167819 Dipole_moment: 2.429
 S           1.11051661224147    1.31798683827511    0.04038846400612
O           0.60474915267530    0.65504006760254   -1.15875139723066
O           1.80744682644546    0.41840491018616    0.92023018383965
O           0.04199700490239    2.07253760579320    0.69346831172237
O           2.15989995307538    2.39118438534627   -0.45225617334241
H           1.62197520886364    3.01524722517384   -0.92888607721607
H          -0.57326110623173    0.72612040127527    1.45310634305908
O          -0.70063699062609   -0.19769044154900    1.75804564122753
H           0.20425464466305   -0.49074921878288    1.91503729578968
O           0.46590872291963   -2.00696598880975   -1.22079236201354
H           0.65840877756975   -1.05591960860818   -1.36530386669126
H           1.12711108993806   -2.30025105080285   -0.53397667225322
O          -2.46768086290636    2.56152331174904   -0.05198684471136
H          -1.53255101431007    2.51439599911348    0.23205414805656
H          -2.99313338417519    2.54223512981773    0.74958922276956
O          -2.01527592651262    0.47141679131537   -1.66061871343378
H          -1.04806527559880    0.62394470019478   -1.68365293409776
H          -2.37956578058809    1.24230125850145   -1.17582675913936
O          -1.73216632493124   -1.53205816187543   -0.18886712666905
H          -1.42366770200527   -1.07317567703993    0.66064176742070
H          -2.00667019760910   -0.74139647199625   -0.83166044742296
H          -0.81014877460422   -1.88027841491462   -0.65177512518306
N           2.27476144774014   -2.38278490433538    0.68850692062372
H           2.30793493295464   -1.37698434750022    0.86079161594067
H           3.18940251300431   -2.66582303546653    0.36066228190634
H           2.10845645306830   -2.84826128263425    1.57183227306320
