    26
        -50.46443324  Gyration_radius:  2.44676086652 Dipole_moment: 6.624
 S           0.48202711869812    1.91454216936010    0.21621089399544
O           1.73740892751056    1.28569090989272   -0.24641548960580
O           0.57783904752295    2.44890797626081    1.54603836213926
O          -0.60191429088125    0.95158790384517    0.06448469890301
O           0.18041200352696    3.10235203282600   -0.76041916039590
H           0.14245965292887    2.66737195136035   -1.63015529406767
H          -1.64348679033033   -0.23416677569436    0.08916115216727
O          -2.20834629710471   -1.04070003001437   -0.01738619433431
H          -3.11289170502464   -0.73086142708227    0.04696914018053
O          -0.14068343860562    0.50211030451356    3.16949607986986
H           0.41833264593634    0.66384237648641    3.93151747568498
H           0.03690647336214    1.24538590509412    2.54984718042459
O          -0.59749000969722   -1.43724430490973   -2.15308400901185
H          -1.27984971360922   -1.31595958047146   -1.45782706116048
H          -0.95088800302724   -2.05777141076210   -2.79197801461903
O           0.55804385391075    1.21539363811352   -2.64906469589863
H           0.02215525477757    0.41592404277243   -2.56297519358677
H           1.22488233039021    1.16297458787063   -1.94426060531957
O          -0.22498602325845   -1.78785021922937    1.81922394517620
H          -0.19467704467550   -0.98260382566650    2.38703079702493
H          -1.07512507374197   -1.73289695548091    1.35682810099146
H           0.76195739809921   -1.51305173716690    0.67147861760167
N           1.35053989048699   -1.27095400860613   -0.19938219466245
H           0.76453992194268   -1.44282769903340   -1.03329242030560
H           2.20899382270483   -1.80992699666786   -0.23256075691777
H           1.56384005815345   -0.21926884760518   -0.16948537427712
