    26
        -50.45958873  Gyration_radius:  2.42015799989 Dipole_moment: 7.265
 S          -0.90839823997497    0.74428396266286   -1.44097727045053
O          -0.09044505074762    1.63730511343789   -2.21179144932270
O          -1.15790554412944    1.21459498313545   -0.07777711408596
O          -0.45014455305527   -0.63934464263449   -1.42383481189497
O          -2.32393703081004    0.70381543088332   -2.15594441562160
H          -2.30859910446715    1.54962170225974   -2.58891650767639
H           1.03513091409347   -0.85916713472783   -0.80475130707624
O           1.91520803991142   -0.96065484167202   -0.36983447901082
H           2.39042898744760   -1.63330284736858   -0.85926851059387
O          -1.26769434522858   -0.50194503372279    1.77338326691184
H          -1.33381634276073    0.22636856137722    1.06265896448121
H          -1.43708816446904   -1.39693239123310    1.25276369382125
O           2.25492137711939    1.80369490806140   -0.85865654263394
H           1.48589390734863    1.86807788822347   -1.45188449016961
H           2.40929812239029    0.85769819823594   -0.73006490149203
O           0.94731932750528    2.22638477676184    1.43450290233072
H           1.58291682922502    2.27099666518944    0.68692087202681
H           0.08321242961891    2.14262682830695    1.00520902861887
O           1.16454680511302   -0.25546017165585    2.16823209579457
H           1.19000011219705    0.74160870004556    2.05055236170384
H          -0.21436410824384   -0.46005809876081    2.04354406576377
H           1.57859105243089   -0.60895099143386    1.36072501027480
N          -1.62423689337729   -2.51973306154788    0.25292984886309
H          -1.26007602808211   -2.00658232483489   -0.55520088594387
H          -2.58166346881267   -2.78233421134667    0.06029582068675
H          -1.07909902023231   -3.36261197763352    0.37718474468871
