    26
        -50.46049265  Gyration_radius:  2.43377229833 Dipole_moment: 2.684
 S          -0.06148660580921   -1.61101873640465   -0.92707188169749
O          -0.26789224592529   -0.34044614034512   -1.60553647602664
O          -1.17987231442502   -2.51443983948831   -1.03930666658928
O           0.41948997842143   -1.41814524080539    0.42970074072998
O           1.13090222511726   -2.33579272558154   -1.71082157494319
H           0.68442774451404   -3.07890891336754   -2.10383113282081
H           0.29089644473158   -0.31439920248168    1.61013524588923
O           0.22793612069139    0.38823871820283    2.30189475886237
H           0.36529363506731   -0.05516051429072    3.13988598570634
O           1.55346713410528    2.12393723333927    0.62090006287083
H           2.08196855950595    1.44474899843434    0.11239235987337
H           1.23569684695616    1.65958799022390    1.41417715274572
O          -2.92441234990705   -0.93501464318246    0.14312336223220
H          -3.63714936357802   -0.87550887657020   -0.49615336552713
H          -2.28096683511890   -1.57099388684391   -0.23330945213872
O          -0.56336385252749    2.00238517298117   -0.69722241654160
H           0.35459310170708    2.17121305214144   -0.17793811770021
H          -0.45198414087059    1.09113497676795   -1.13894435766806
O          -2.06220736546686    1.35390618965564    1.20150957575791
H          -2.47503177467530    0.52442784885383    0.87273855212410
H          -1.35674401803388    1.06871345354595    1.81206945986473
H          -1.27205353889920    1.83489714838236    0.06669913701625
N           2.53894132389218    0.09335371029220   -0.76174755508512
H           3.48392725681316   -0.26913561557251   -0.78063583936717
H           2.22210996674268    0.17262706000261   -1.72061364021850
H           1.94351407695615   -0.61020720791118   -0.33209392734428
