    26
        -50.47636628  Gyration_radius:  2.4229082761 Dipole_moment: 2.572
 S           0.42732998425480    0.22577014947779   -1.52132859858179
O           1.10816547312105   -1.05001114060382   -1.38937619506196
O           1.05001960482943    1.27011245275941   -0.71912849448455
O          -0.99799487502488    0.08848387107911   -1.20603212403270
O           0.53167473542152    0.69834935684760   -3.00466855171868
H           0.11800494875593   -0.03663984340137   -3.49588346573165
H          -1.28357879027644   -0.65495862848020    0.21108997330053
O          -1.43552116164199   -1.11037449424209    1.07678181563477
H          -2.27151323597627   -1.57192911675093    0.99417174798532
O           1.20861549946154   -1.94061469093507    1.11195923830051
H           1.29580559914218   -1.76584148698257    0.15045108794113
H           0.25123091592448   -1.93215530105923    1.27280713279145
O          -0.71554082322013   -1.61310268365552   -3.32164855213245
H          -1.30298832833568   -1.21546419516034   -2.66522395299761
H           0.02659171493868   -1.96284125268266   -2.80976786309229
O          -1.14056982808101    2.46550031863990    0.27958320937636
H          -1.75784582961712    1.93386206714997   -0.23266565629820
H          -0.27470716904307    2.25305977171442   -0.11329424387353
O          -0.76963522402362    1.12240643636489    2.56614719888118
H           0.74093861711833    0.85221391521102    2.25005317891339
H          -0.99568927723146    1.77470836858462    1.86368587358899
H          -1.16090670698134    0.28658027361705    2.26045599606189
N           1.65086684986325    0.55888026812344    1.76191702658652
H           1.62991848925884   -0.50111291625418    1.65394957241177
H           2.47949690513825    0.89104529293597    2.24124787084831
H           1.58783191221524    0.93407319772023    0.78471677544143
