    26
        -50.46455191  Gyration_radius:  2.42071519758 Dipole_moment: 4.945
 S           0.79677028115378    0.46137994549709    0.95197886168735
O          -0.14762234542436    1.56653430198801    0.99164162335555
O           1.74115817882527    0.57516663379590   -0.15411846457895
O           0.07692392961114   -0.81815906324430    0.88216808792438
O           1.63484390605349    0.45374935845126    2.25160088567146
H           0.93212778139222    0.47108919961367    2.96202410512671
H          -1.12900461542518   -0.89013773086359   -0.18173612667095
O          -1.81336158992844   -0.91964845690800   -0.90093642131159
H          -2.46945879055039   -1.55877691097749   -0.61970189441211
O           1.68681641699578   -2.14952257637932   -0.78500461136423
H           1.09852018206000   -1.80999433790820   -0.08125054114759
H           2.44285115537976   -1.55564111438147   -0.76862814654570
O           0.77962272965120    1.06023386749469   -2.42635667110409
H           0.54296363693814    0.05232990213096   -2.70457166980264
H           1.29465749404038    0.94852064320312   -1.54450383379183
O           0.13585316206552   -1.32741010871213   -2.75887606463225
H          -0.70781885939617   -1.31388446025631   -2.26788508463060
H           0.77395159428367   -1.78114904789969   -2.14964321045358
O          -1.36648867735380    1.76294168391496   -1.32288739545871
H          -0.97880212800426    1.86327553604292   -0.42081009888298
H          -0.12962253640518    1.47038271273100   -2.10738641234204
H          -1.83868430196285    0.91481173370955   -1.29500847096484
N          -0.58025730208769    0.59162007806904    3.60732227717433
H          -0.86957764252147    1.15278031971469    2.81042285309265
H          -0.83349928583039    1.07043993538863    4.46173366944519
H          -1.07286238356907   -0.29093201418792    3.57041272462636
