    26
        -50.46208858  Gyration_radius:  2.46597707177 Dipole_moment: 8.968
 S           1.04217026470332    0.62267431940142    0.04385769830951
O           0.94015618115647   -0.90187792650351    0.39406646028328
O           0.58418448093461    1.39557544412427    1.16395751466109
O           0.20228109513148    0.80356950489741   -1.14879180952251
O           2.45826373177629    0.79888722360197   -0.28133647966152
H           2.78573284568089   -0.36886046167324   -0.97259383185724
H          -1.40428119260041    0.90719282545478   -0.88467721211084
O          -2.36330951893464    0.80432310891850   -0.67296945237019
H          -2.84191192702097    0.95385476267062   -1.48946949215988
O          -1.13777829773143    0.34441156162573    3.09138063634759
H          -0.27324089559166    0.62887951232133    2.76165045422440
H          -1.71716305043406    1.09586342292897    2.86338321907820
O           0.41509925717052   -1.46900084608091   -2.36821767226741
H          -0.14749749633823   -2.03380331621552   -1.83161832267006
H           0.26776134922132   -0.54872202562833   -2.02487683905692
O          -1.98499116078055    2.45109047390509    1.58298007196269
H          -2.37552991177274    1.99797195871030    0.82313949428926
H          -1.02934607731599    2.40889423402702    1.43191075751174
O          -1.49312899434093   -1.20251020589834    0.99519720749117
H          -1.47408930860773   -0.76344582910008    1.88731602731608
H          -1.99190984112361   -0.59168287637744    0.42530667706942
H          -0.03470550716098   -1.07791180826249    0.66256441546098
N           2.90077384918201   -1.35309662135975   -1.50395042578883
H           3.63268959540784   -1.31340736845095   -2.20621295404450
H           1.94168715896868   -1.52592657461527   -1.93725026405876
H           3.09808336042998   -2.06294249242913   -0.80474587844232
