    26
        -50.46208853  Gyration_radius:  2.46582861351 Dipole_moment: 8.967
 S           0.30992496657820    1.14866207552362    0.24709538498474
O          -0.66122281876618    1.65637139269170   -0.68071671277058
O           1.25847578521168    0.14730064601483   -0.49754352060815
O          -0.30013913164402    0.37007239906196    1.33428722034303
O           1.23203409709433    2.15428247147138    0.77692992625899
H           2.34047004351051    1.40668112312221    1.17697248307173
H          -1.54472234507781   -0.59590509908461    0.91157232407412
O          -2.17903502240936   -1.26872089925381    0.56496732917886
H          -2.54525615308364   -1.71844417598597    1.32764583046436
O          -3.26995061317892    0.70980934362343   -1.11997873277701
H          -3.16129321607816   -0.06985556958693   -0.55831540651240
H          -2.54289253878862    1.29839237290175   -0.86960337889623
O          -1.35214227749315    0.28645399126570   -3.01055248101209
H          -0.89957716321616    0.98360189963519   -2.51421672475957
H          -2.26471372766333    0.33053997193385   -2.66761990018020
O           1.54237953171911   -1.34512129626459    1.93470393462023
H           1.47969150637002   -1.96546373992682    1.20348909703150
H           0.76691572659591   -0.73376084617944    1.82821102844186
O          -0.33056166746694   -1.56679914893182   -1.45043108269207
H          -1.05441845698495   -1.65419934494021   -0.80621687685041
H          -0.70794807021045   -1.01632744623013   -2.18775541702410
H           0.65767628603966   -0.56947776863312   -0.92051913025507
N           3.15536939263467    0.67950839718720    1.44532588064505
H           3.72247688394673    0.52787712568758    0.61643997194596
H           2.63138137663326   -0.21478043648290    1.69621147710209
H           3.71707760572670    1.01930257137628    2.21961748617453
