    26
        -50.47029282  Gyration_radius:  2.48007586536 Dipole_moment: 3.128
 S           0.63882682711603    1.87000098743904   -0.53849718866824
O           1.87697672533765    1.09609076416565   -0.50809384730461
O           0.21435706371287    2.35002597780955    0.74882019708010
O          -0.40604392407820    1.12882314711770   -1.24238897417041
O           0.94709938402255    3.14708313579450   -1.42139746578322
H           1.26545794914052    2.78586955198411   -2.24279360927194
H          -1.29151312075130    0.67103754176504    0.07485665821306
O          -1.73640891443846    0.36265213185852    0.89584314096491
H          -1.71356948238318    1.12929038783302    1.47511288783641
O           1.76725393957368    0.88163102026858    2.32424183731639
H           2.52425554707564    0.83994214831544    1.73427307726951
H           1.17120870394019    1.52942776058412    1.89893072934330
O          -0.70418712937497   -1.39998718564869   -2.14584322420116
H          -0.69492406015287   -0.43043846810148   -2.05324430852204
H          -1.49965709314749   -1.69108640518099   -1.65521464404479
O          -2.82769645336188   -1.76866475863615   -0.49394318210581
H          -3.70654473632113   -1.53106470060193   -0.79321655880172
H          -2.55502300305266   -1.08252823914047    0.13584925029757
O           0.21483827457690   -1.26494491860898    1.94150114198596
H           0.80341142291721   -0.55684016575283    2.28762001031468
H          -0.61279172549269   -0.80852786152306    1.70157730820869
H           0.85754319090772   -1.55242708346867    0.54979541764477
N           1.28468554576583   -1.47685294448066   -0.43147473671236
H           1.62307650918076   -0.48316062038266   -0.52044117080947
H           0.51712359881752   -1.60779841536912   -1.16035666700409
H           2.04224496046355   -2.13755277803106   -0.56151609907096
