    26
        -50.45755047  Gyration_radius:  2.53695801493 Dipole_moment: 10.373
 S          -0.78440216191950   -0.48195229359188    0.66012418281218
O           0.12961859703700   -0.59538682444931    1.76017572752260
O          -0.34529031882884   -1.19416568821365   -0.53640440260827
O          -0.88532670759765    1.04103312793088    0.23724523771830
O          -2.17379195319135   -0.81454950683637    0.99455066714686
H          -2.88721493052741   -0.20444076347119   -0.02065163432730
H           0.04833436756772    1.37343045840253    0.13171399300235
O           1.55377306074439    1.90164426569024    0.03941558358281
H           1.64352252571171    2.85578979303693    0.01673659407570
O          -1.79615000267548   -0.92772389119584   -2.65924644955708
H          -1.92635116704251   -1.80575107899223   -3.02181946331390
H          -1.14074595189580   -1.03897568222384   -1.91914175936201
O           2.25675797606616   -0.63263330177728   -1.04589679448445
H           1.34308760208929   -0.94956524174174   -0.93717330958256
H           2.21139371786008    0.32310977368716   -0.92409774476507
O           2.93485279198421   -1.37823214864100    1.48257165637975
H           2.90886993435137   -1.22367503094559    0.51699903115489
H           2.02212513119062   -1.57963037315879    1.72090526025079
O           2.22754498428362    1.03282320659363    2.36182435423715
H           1.89762169162460    1.60793160367857    0.94802616865278
H           1.36621302651278    0.61689887757288    2.52447962520374
H           2.79425070156564    0.25556808575730    2.14946021875481
N          -3.29901047606286    0.34150055320114   -0.92002361275946
H          -2.85506751891863   -0.14526763441113   -1.75000770507030
H          -2.93169667471480    1.28799627025822   -0.85346590651465
H          -4.31291824526425    0.33422344391230   -0.95629952815205
