    26
        -50.47029305  Gyration_radius:  2.48028492111 Dipole_moment: 3.134
 S           1.67782953901711   -1.15789524211340   -0.19427183917761
O           0.69447386030501   -1.86298383047797   -1.01190996015686
O           1.59552497309520   -1.45591642181637    1.21000940243344
O           1.63749178322553    0.27597070248846   -0.47534392911959
O           3.09488873982982   -1.66466980210898   -0.68502568821613
H           3.09265646783676   -1.47976750427759   -1.61907684817120
H           0.85704322630240    0.75684196844856    0.89921157875963
O           0.32503287557441    0.97856925162414    1.69591737623062
H           0.70162377562742    0.42846945753119    2.38826279766296
O          -0.77314564949092   -2.65342812027554    1.29050587978623
H           0.12419610570582   -2.29169895534888    1.43071396744108
H          -0.72557627853070   -3.06435230041466    0.42349446590616
O          -0.01923001144904    1.93116468987991   -1.82280010076144
H          -0.29236915180956    2.55221300936856   -1.11709102440042
H           0.75936157847892    1.47052471907303   -1.46185434718386
O          -0.55425876895968    3.29600072510068    0.46286722480034
H          -0.33777811301424    2.55275660315176    1.04812329123104
H           0.01843300186883    4.02057475920796    0.71870522407172
O          -2.03269595172068   -0.29958865053026    1.09928868927864
H          -1.73823169982930   -1.21562767433691    1.30387961376734
H          -1.32616162023609    0.27470140530052    1.44845105645858
H          -1.79227622666503   -0.23130810772062   -0.44038287319525
N          -1.37922264340602   -0.28154669624752   -1.42921375441714
H          -2.06945486848654   -0.58115238196368   -2.10827630823152
H          -0.57816465862110   -0.96337141432260   -1.37033869809312
H          -0.95999028467259    0.66551984079552   -1.68384521670451
