    26
        -50.44594788  Gyration_radius:  2.64915628555 Dipole_moment: 9.145
 S           0.42604647410845   -0.64611507945963    0.71728118170448
O           0.79936306942053   -1.53978753845027   -0.33632498618196
O          -0.78218110526951   -0.96974604646924    1.41217504204398
O           0.30418620092583    0.79907462545680    0.13419990241888
O           1.55521665522112   -0.47477705209619    1.73044121994703
H           2.41805333725476   -0.28289089425765    1.22999106113052
H          -0.45481986850756    0.78538640611583   -0.54344117524716
O          -1.58256753067725    0.63671726677924   -1.55736327211027
H          -1.39098534570832    1.03460361614254   -2.40878836407263
O          -3.22973908601161    0.22404021399521    0.76160354888464
H          -2.93834503261447    0.59334559905961   -0.07908794699544
H          -2.42154479145902   -0.03671095153268    1.22576465142537
O           3.70913497200479    0.22535217931653    0.57264192040623
H           3.43549667029696    1.15102019135595    0.31899834453888
H           4.39551417270864    0.30370938868384    1.23904891295977
O          -2.91521064790168   -2.49410831016316    0.33094613916617
H          -2.17489039503376   -2.39156423966623    0.94173443247965
H          -3.42105581002642   -1.66974621999764    0.43528340849821
O          -1.44040600703137   -1.88582292501675   -1.80191431214651
H          -0.55607105567483   -1.98870951371623   -1.40922052495009
H          -2.06831311842812   -2.25482436033156   -1.13427930294746
H          -1.60048743162977   -0.37641038888448   -1.71816901369974
N           2.66759272272084    2.62155803531898    0.03548016502660
H           2.81924380423286    3.03117534271233   -0.87748404249967
H           2.72251200669012    3.36192482254647    0.72364654367650
H           1.72425715038856    2.24330583235525    0.05683646649771
