    26
        -50.46235926  Gyration_radius:  2.41911126955 Dipole_moment: 5.454
 S          -0.24375946410500   -0.34718327527911    1.51089780822021
O          -0.24039416298226    0.99200635036607    2.03572902805183
O           1.05061752069156   -0.74175222865216    0.96160424041330
O          -1.29455288036323   -0.54263764557959    0.49380735014153
O          -0.56491230704751   -1.31359031961998    2.69191765296341
H          -0.72761797584244   -2.17513516015469    2.26517212645597
H          -1.27509701675541    1.08545823743530   -0.08955451568240
O          -1.12364998611490    1.99321390923654   -0.40933781700048
H          -1.12273768714391    2.52472360398132    0.39185301998852
O           1.56051663038640   -0.35608287200776   -1.47372547462753
H           0.62752302859353   -0.56480042065820   -1.92741445960223
H           1.42657014076118   -0.60984126436404   -0.49079631293911
O          -1.45058109458998   -3.11838247984455    0.94771166874396
H          -2.34906289965292   -3.39156847188900    1.14562291609414
H          -1.50338491809843   -2.21054737521354    0.58552162002180
O           2.18646030556138    1.85567561095631    1.36375015585290
H           1.29993362845376    1.65880305732554    1.72848675132002
H           2.66384329037315    1.02442447498981    1.42861184019476
O           1.44958842438196    2.10244084288039   -1.16030210856023
H           0.48052655434395    2.19680525964569   -1.01635666967436
H           1.84692106671579    2.18324955863594   -0.25643702201401
H           1.60591781400761    0.71895354205940   -1.43341567440827
N          -0.81194321585856   -0.72916344992136   -2.31326932440540
H          -1.21529546088813   -0.74832807509468   -1.37595583591261
H          -1.09036421245603   -1.56548724730941   -2.80864270607878
H          -1.18506514244871    0.07874584788678   -2.79547823761710
