    26
        -50.46819384  Gyration_radius:  2.42359619632 Dipole_moment: 4.147
 S           0.23032341223461   -0.62737928271815    1.85903878706176
O           0.20167429393721    0.67269403303244    2.49031585614055
O           1.34859988174170   -0.77328801099073    0.92792043335997
O          -1.02907542318164   -0.97745023459203    1.23383195070192
O           0.49996093425882   -1.68339925529900    3.00517569612406
H          -0.04835539396534   -1.34061713655719    3.70226327298564
H          -1.46001555447095    0.18868697462651    0.10457645351979
O          -1.72992215983308    0.78384806211905   -0.62960711781957
H          -2.39234415562880    0.26045228362393   -1.09934705559989
O           0.33958615604074    0.57905461498268   -2.36010633074158
H           0.49671987549696   -0.37651882938752   -2.27071260863172
H          -0.50879948999537    0.73157248930781   -1.88939225850464
O          -2.15247757590274   -1.94095298692407   -1.17318231774016
H          -2.04146060758164   -1.86771342265191   -0.21742473381378
H          -1.25622411291804   -2.08445094382086   -1.50322823887398
O           0.71016216571985   -1.94642700501778   -1.36684369532251
H           0.90034940577356   -1.57988438964298   -0.47498378775489
H           1.27507352789295   -2.71319508891344   -1.46990018461966
O          -0.32777965797399    2.69770914657640    0.86724317891629
H          -0.23188974793589    2.08115500035556    1.62441664619724
H           0.96403578870690    2.17116020394332    0.12000340377514
H          -1.06122097962836    2.34781614539235    0.34142252505546
N           1.68375292761094    1.53154752390765   -0.34304553490232
H           2.59068556594046    1.97428124713310   -0.43382204507793
H           1.26966661207182    1.22794889558200   -1.28600705447382
H           1.72897431159687    0.66334998592418    0.24139475002763
