    26
        -50.46215550  Gyration_radius:  2.39747976071 Dipole_moment: 4.880
 S           1.17457335724653    1.10972544236251   -0.14331223351682
O           0.10807208205897    1.11973743655512    0.88971832972389
O           0.87899428448013    2.05443994462528   -1.18972844326560
O           1.33010715982531   -0.25610873854929   -0.64349078963587
O           2.48028232546853    1.51898825388540    0.56697519765576
H           2.66683657385777    0.72468513845397    1.15559113469311
H           0.18046406366464   -0.78226372398750   -1.58544764425512
O          -0.59099761831638   -1.08340621473900   -2.14169311628728
H          -0.23285516023036   -1.70609676035701   -2.77561002467286
O          -0.48681834348626   -1.16076539843322    2.02675063357112
H          -0.16348232735267   -0.31857004344600    1.62545286606781
H          -0.96189385018316   -0.90849389930855    2.82101335518655
O          -2.22799406207851    1.20386426724951   -0.02547660203724
H          -1.30075293007244    1.30236966941837    0.41966046446550
H          -2.02282262749362    1.42216559721819   -1.04551726799053
O          -1.39999307179712    1.51609119206364   -2.35894311793521
H          -0.52548567110096    1.88129762744362   -2.08177483683628
H          -1.22147033360336    0.58315078511474   -2.57754092542780
O          -2.25238494755833   -1.31080877823144   -0.00359210775414
H          -1.63034679297683   -1.46971518239675    0.74107303273096
H          -2.39382593628586    0.16354093786167    0.00388321048546
H          -1.73473611363890   -1.44282812573639   -0.82065268669869
N           2.63334069427252   -0.77793851733089    1.77120435723985
H           3.49113973023149   -1.28509693243322    1.94566450211743
H           2.21914894060512   -1.11684951248408    0.90603677611550
H           1.98290057446212   -0.98111446483404    2.51975595625147
