    26
        -50.45514390  Gyration_radius:  2.42744099039 Dipole_moment: 4.706
 S           0.64260988432875    0.80878395788786    1.24866751136227
O           1.06483692140382    2.15715481098312    1.05163614138549
O           1.23561926356106   -0.14722379943815    0.33303845570601
O          -0.90186010210527    0.71540595923432    1.09339861986158
O           0.85548552800670    0.34867336396644    2.67109758040882
H           0.77088687487535   -0.69917120439987    2.62589057945991
H          -1.17304241622523    1.02304402018020    0.17034577450752
O          -1.46179672100484    1.50410941177168   -1.27980558031200
H          -2.16885389603116    2.15165984427574   -1.30706299277170
O           0.66778019724636   -2.10085933451970    2.27780259518477
H          -0.25258277714552   -2.21867604388205    1.86064101767393
H           1.28920727852196   -2.15273039223161    1.54472618091371
O           2.10077739731776    0.42562951511030   -2.19856862786865
H           2.03441252284934    0.18474753243724   -1.26032033180456
H           1.56799830811481   -0.21941696412226   -2.67216255103418
O          -0.53891924310020   -1.19513387931732   -1.44942647967855
H           0.15476496263280   -0.89915753428092   -0.83663915233157
H          -1.03485041373311   -0.40095872621283   -1.67870707373918
O           0.77595697446846    2.69772682518300   -1.59573453981561
H           1.02542617418055    2.75143586779509   -0.65714129256803
H           1.37198551430513    2.02406129759734   -1.98510478983949
H          -0.60844571767452    2.01107929092678   -1.50026961550699
N          -1.63637681695680   -2.23297793839714    1.03820659846162
H          -2.13956612989220   -1.40788550832566    1.34033834211846
H          -2.25208342673973   -3.03242981995072    1.10796924617930
H          -1.38937014109091   -2.09689055233197    0.05718436397233
