    26
        -50.45402682  Gyration_radius:  2.47063274156 Dipole_moment: 3.622
 S          -0.05977250448474   -0.57310952315865   -1.26477351946424
O          -0.35347609557845   -1.95384061109125   -1.00924115341537
O           1.26070871378529   -0.16454195739861   -0.86095796975363
O          -1.10358464594494    0.32548052729484   -0.57072456263312
O          -0.30063223561591   -0.27054264011125   -2.73720118958426
H          -0.35429168864840    0.75392998955045   -2.81568095125948
H          -0.80508844287476    0.64309256678835    0.36647225795677
O          -0.43626704374949    1.08739936311656    1.73272683472225
H          -1.25277383278118    1.27291602248524    2.20302803510525
O           1.87639641381258   -2.21245734688006    0.78048912985179
H           1.90324597559522   -1.42232191349234    0.21610120370727
H           1.32586741142853   -2.83405884492163    0.29567777505687
O          -1.79786360613420   -2.35051248721469    1.21779564807915
H          -2.10119139635415   -3.25997571193453    1.22486883178426
H          -1.35254369955408   -2.21640701193518    0.35918136223484
O          -0.52750177556141    2.24313876803021   -2.66076390772048
H           0.09431251501830    2.49628809082978   -1.90573324395697
H          -1.41801432165702    2.34156904280208   -2.31505365140971
O           0.21345240331191   -1.21108516675719    2.65197571820202
H          -0.08307826105404    0.22860474122948    2.14762007829995
H          -0.57432945411430   -1.68946994319314    2.33148926262770
H           0.95969555040225   -1.58034500928619    2.13381959855560
N           1.04824320938232    2.63851460469588   -0.59055651978094
H           0.59369784154928    2.75033509837364    0.30822985572102
H           1.83677228978612    3.27214102590937   -0.62338959554994
H           1.40801668001212    1.68525831626710   -0.61539931739256
