    26
        -50.46215550  Gyration_radius:  2.39726132584 Dipole_moment: 4.883
 S           1.42869348416935    0.71375167542003    0.28566158126947
O           1.69963799537647    0.80220560145742    1.69764137791362
O           0.16990955010599    1.42469440561845   -0.05299692801905
O           1.32797011728279   -0.66789316071807   -0.18400479692206
O           2.55528746309232    1.41339012495193   -0.50047614923889
H           2.34962281306690    1.15732239793302   -1.45144267833574
H           0.37578497869813   -1.61354971604058    0.64294707807834
O          -0.26968431820540   -2.16002356235682    1.17215607901104
H           0.05928959569891   -3.05939897956097    1.14363595386210
O          -1.71625047870581    1.02611872589008    1.55472548233572
H          -0.95322432640167    1.33822317826595    0.93170773687502
H          -1.19202592628584    0.54298226153002    2.34339723495439
O          -0.23757083394491   -0.24128446571958    3.11514651216272
H          -0.27195492099496   -1.11096304265634    2.67639524954497
H           0.59558122188373    0.17402964733584    2.78585658708032
O          -1.31379229988130    0.40274180081370   -1.95054964103815
H          -0.67531849446425    0.78718865968689   -1.30286344850009
H          -1.89646213630359    1.12147859554691   -2.20387713156055
O          -2.43878505609086   -0.90776996076112    0.11839162645810
H          -2.10874880036145   -0.59178359804167   -0.75220439583440
H          -1.77834969239135   -1.55027713744155    0.44083250983877
H          -2.16429213647646    0.24633894067979    1.00542633693897
N           1.73794943050450    0.38000625150250   -2.73947755065237
H           2.34105688924154    0.05527594196959   -3.48397574207884
H           0.87913607379027    0.72442692726534   -3.14996776032917
H           1.49653982755453   -0.40723152253932   -2.14208513383778
