    26
        -50.46487310  Gyration_radius:  2.45930923201 Dipole_moment: 5.082
 S           1.09434251300427   -0.35596050501224   -0.49238376646844
O           0.68754922375642    1.06772921749550   -0.61727911421064
O           2.52447710041567   -0.50468615402471   -0.57694816024539
O           0.72165110329517   -0.74663587349387    0.97135073678063
O           0.33040482763741   -1.18262961606194   -1.40242443718875
O          -1.97336454453680    1.34647374637373   -0.66932848573502
H          -1.00171517434208    1.40783982202677   -0.73371012785075
H          -2.23039161152103    0.84554443048268   -1.46156930839212
O           3.25141860113742    0.15372995854671    1.80193802763806
H           3.12165193826988   -0.10556372327867    0.84744362742775
H           3.02477741476201   -0.63738609716426    2.29735210874151
O          -1.97067680257656   -2.46433971763808   -0.67441173734686
H          -2.49535539868134   -2.11941250900639   -1.40425781845553
H          -1.04991996727094   -2.26126139651223   -0.91464705318282
O          -1.82052159148964   -0.40099062918667   -2.78561844101514
H          -1.59716761929495   -0.16831844543920   -3.68736175162483
H          -0.98073894880228   -0.67164682146057   -2.35726227172828
O          -1.77086209648652   -0.54324901639582    1.16598912727661
H          -1.99139873510269    0.21913483195914    0.57161467013748
H          -2.03248798294191   -1.34402655862608    0.65754201852521
H          -0.30726171205948   -0.69549550755829    1.08363738790064
N           1.28634004990116    1.86412936184116    1.70650326539885
H           1.53485678182322    2.84283998380843    1.81278992404942
H           2.12799020299458    1.21192272107426    1.88262074417220
H           0.50930770413154    1.61466714860075    2.31308504809545
H           1.00709469402719    1.62759132865415    0.66533578723700
