    26
        -50.46336813  Gyration_radius:  2.48572747365 Dipole_moment: 5.644
 S          -1.38090928168719   -0.58145484665091    1.14020029154009
O          -1.83978820094998    0.76601396186527    1.36164364462424
O          -0.32003779388470   -0.99753927741251    2.02827980813028
O          -0.95731471533215   -0.78049866987738   -0.27347175836272
O          -2.61245440106049   -1.53021026327446    1.34874542876283
H          -2.29120797632997   -2.40526901488670    1.07239209214745
H           0.68586397922253   -0.97741286482623   -0.21215196359786
O           1.66282802557375   -1.09722659941980   -0.17672121113862
H           1.79437664037026   -1.86520463316074    0.38286887394818
O          -1.62758417761062    1.67754479593660   -1.03590149923771
H          -1.43272225101639    0.74275532951312   -1.21806800119404
H          -1.96543034005337    1.60790059657512   -0.11504359639640
O          -1.37147514052601   -3.37858225683682   -0.15882617192465
H          -1.09781910035667   -2.46566671950471   -0.38084836980598
H          -1.91612337131512   -3.68701503298361   -0.88593691351276
O           2.32249882539824    0.83515920512261   -1.95260486005994
H           1.97057641890759    0.54073561799060   -2.79442109665801
H           2.25527557582066    0.07111163552383   -1.34971123250276
O           1.42282829026460    0.93776441199752    1.73050353760545
H           0.69528433564434    0.34733444286726    2.03025346933418
H           2.01063202932957    0.33369759021228    1.25445535806590
H           0.97336238113773    1.90981557196585    0.56600752192371
N           0.80311683811851    2.40900273860638   -0.36336982090434
H           0.97660096177106    3.40383504714548   -0.27338661352804
H          -0.20673395102132    2.21488776803802   -0.66637811858055
H           1.44635640960468    1.96852146549938   -1.05850882867178
