    26
        -50.46336797  Gyration_radius:  2.48600554691 Dipole_moment: 5.651
 S           0.97467918470497    0.61454420339975   -1.49108890778021
O           0.78662542997972    1.99296530466498   -1.11720996342644
O          -0.10308541700623    0.06416840005355   -2.28031382611256
O           1.20646017045148   -0.24124089749501   -0.29456944029229
O           2.29989243762296    0.53803247989599   -2.32679882184926
H           2.45032223499726   -0.41420483433695   -2.45243358912225
H          -0.14404306768034   -1.19140484141383   -0.16782144045189
O          -0.94520074465865   -1.75930256201901   -0.09260604415581
H          -0.97616943243220   -2.24820129864530   -0.91740195258354
O          -1.57111139591005   -1.15653752996370    2.47045161963041
H          -1.45168998816432   -1.52480938855886    1.57498744387543
H          -0.85276487842408   -1.50725033688211    2.99970229684851
O           2.47623357326743   -2.07087946026614   -1.69958684247161
H           3.32197104592701   -2.30042844026692   -1.30910478758463
H           1.98794217611245   -1.55309430053933   -1.02792970825071
O           1.14668854738555    1.78833714110766    1.42305313188118
H           1.39465800461152    0.88368725420072    1.16783775154600
H           1.12226931002072    2.21735238754167    0.53855370840446
O          -2.19747485337102    0.63800997096259   -0.81241193430046
H          -1.74664014379274    1.23477907157767    0.58153604408503
H          -1.46856659484268    0.63150554263885   -1.47304095386245
H          -2.29868803012125   -0.29903902856505   -0.59153175881661
N          -1.44446209817677    1.39796812480742    1.59343058353575
H          -0.39993218314648    1.63947202504438    1.59500152497677
H          -1.57354036039028    0.48902587944593    2.09165799928032
H          -1.99437294689069    2.13654513368281    2.01763786702654
