    26
        -50.45212628  Gyration_radius:  2.45406645862 Dipole_moment: 7.619
 S           1.60823666585410    0.32174546805545   -0.80569366996096
O           2.77546504157998    0.33287305914915    0.02332754722160
O           0.50256491661386    1.09520900053530   -0.25788591532908
O           1.06133443266750   -1.16786891656804   -0.92656162437094
O           1.84461251990481    0.66412281688946   -2.21921627816216
H           0.71806890773163    0.20710191834771   -2.82883723649042
H           0.84232204538410   -1.47157639029727   -0.00473951917787
O           0.46997488938424   -1.81145521058136    1.51989044934227
H           0.97011435973288   -2.54895044176431    1.87309084222257
O          -0.96386357423766    1.56436726452200    2.59221900877355
H          -1.19401430579083    1.48104674101602    3.51910164721516
H          -1.43322183846531    0.83826859256692    2.12913413337933
O          -2.05393406333867   -0.58503515303970    1.32313806698088
H          -2.08808020890758   -0.29183056427152    0.40230209403061
H          -1.27513316375456   -1.15516627885530    1.39590120787497
O          -1.79111151175289    0.68832262221570   -1.22011336787903
H          -0.90381873516292    0.88158676269390   -0.77260776191731
H          -2.27789606272389    1.51349388566457   -1.17411440661676
O           1.47801205874061    0.35827633562308    2.40547738175292
H           0.72099967209817    0.98105141801431    2.36890113270683
H           0.85746099563541   -0.97484909479074    1.95684629745003
H           2.03413565555918    0.54262215267780    1.62785828043171
N          -0.26743175626442   -0.26056134720143   -3.18953975793257
H          -0.45778337600348   -0.06295536733485   -4.16619315114941
H          -1.01112881138637    0.11852214063668   -2.54947769718357
H          -0.16588476309566   -1.25836141390845   -3.02220771326426
