    26
        -50.47136168  Gyration_radius:  2.44331904612 Dipole_moment: 2.093
 S           0.65022012579351    0.88851958853296    1.76007050253203
O          -0.03207177249182    1.95777163964827    1.03026374891407
O           1.78703199674573    0.36627752268344    1.05498119596762
O          -0.29837267239186   -0.13569234084644    2.18176660027303
O           1.18951752302110    1.55589596000049    3.09021926535030
H           0.38174547733588    1.88551852016439    3.46767304679400
H          -0.26357953195507   -1.48859974864115    1.31349622751343
O          -0.29356372852920   -2.31803762205610    0.76798857030173
H          -0.43759722022609   -3.03430214866560    1.38796342933480
O           0.57893308547430    2.28736644364966   -1.49101169408231
H          -0.13171596975624    2.87776399514377   -1.74979664742740
H           0.48885662469932    2.18456737872367   -0.51412476948390
O          -2.34127825769200    0.77152430500790    0.52061231337095
H          -2.36483068444733    0.22901807929871    1.31458201414402
H          -1.53746633509353    1.31725389947637    0.64188591642070
O           1.97349548770874   -1.64827233452385   -0.63610952975359
H           1.26529687838131   -2.15403873580761   -0.20141325459476
H           2.14602172976801   -0.91663828946962   -0.00824244074692
O          -1.74749169228790   -1.13527692570766   -1.25124828125871
H          -2.09517828692318   -0.38887242015180   -0.70998494063235
H          -0.47514202442947   -0.60288144926513   -1.99615969210266
H          -1.35571464948802   -1.74383004042101   -0.60130302111330
N           0.49212856984441   -0.26633721722152   -2.30275823285121
H           1.19534292617801   -0.82794276312422   -1.72230298091698
H           0.58554272671424    0.74883266271621   -2.05193837188864
H           0.63986967838880   -0.40958793513122   -3.29510898295620
