    26
        -50.47273116  Gyration_radius:  2.44000012231 Dipole_moment: 2.888
 S          -0.94447918840411   -0.09767444196603   -0.10961454115421
O          -1.18184892179917   -0.32885929628961    1.31321268066327
O          -1.42562528363089    1.21321248478026   -0.52555046240460
O           0.46532188115282   -0.26028219496893   -0.45332712960169
O          -1.74164352928372   -1.19709452890644   -0.85932821417642
O          -0.00089065093522   -2.70689906518785    1.65512603751624
H          -0.54461292280561   -1.89915286200241    1.58078771452509
H          -0.34753493084583   -3.31778718154053    1.00317074379018
O           0.70741166456733    2.50659724381738    0.38482925564395
H          -0.15607164122350    2.16971585669956    0.06071086618905
H           1.33657419809535    2.26742651841535   -0.30074754994627
O          -1.17359241428467    1.53539627607717   -3.14166149229287
H          -1.28699890774747    1.51730112208056   -2.16663036169405
H          -2.02264013115528    1.79450905701048   -3.50347548311253
O           2.21266196136469   -1.16363889501672    1.34363863457378
H           1.78134303561935   -0.88071994298696    0.51225521163487
H           1.67109314721329   -1.92697041532963    1.61865809627851
O          -0.28570349924875   -0.98775352729768   -2.95324588521797
H          -0.56602875569752   -0.10654349768531   -3.27929423012953
H           0.41508274098878   -0.80505376064400   -2.31002173288900
H          -1.30753492032802   -1.24845271802867   -1.76445702211523
N           0.89445560556913    0.80390037226088    2.42119387255443
H          -0.04164545465566    0.37275657831397    2.19809467787475
H           1.60133200052463    0.04353474567630    2.14144659221710
H           0.97014900036047    1.60794494780033    1.74479094263482
H           0.97142594659601    1.09458714491747    3.38943876863400
