    26
        -50.46656035  Gyration_radius:  2.45746110231 Dipole_moment: 4.181
 S           1.45529567648100   -0.35861716357158    1.50622332089517
O           0.27952322833911   -0.53113681787603    2.33617364632660
O           1.30101422087932    0.69489391278047    0.51439536909663
O           1.92328700873100   -1.60420597981439    0.92896424159597
O           2.60876500113400    0.14861310488579    2.46939123710934
H           2.68960160817723   -0.57557919995270    3.08084775262867
H           1.13713156535236   -2.14956898393133   -0.34044160722422
O           0.57623650951243   -2.40375885740682   -1.12158790191556
H           0.81433366021109   -3.30713082959726   -1.33554431245125
O          -2.37347035925905    0.96950349786193   -0.06420045927039
H          -1.88089401866723    1.45002015245565    0.65098118681671
H          -1.65561122370746    1.28103018223019   -1.24143039913548
O           1.11773136720374    0.09201948896524   -2.02954603478170
H           0.91870099129585   -0.85859263559402   -1.95082672190091
H           1.36629626939483    0.35609901037106   -1.11466295385807
O          -0.69400420412543    1.94213179012543    1.72011865970614
H          -0.73657569996252    1.27064184765205    2.41228245974631
H           0.11021676050410    1.68634824109220    1.22737149686067
O          -1.46339682739879   -1.42623733009491    0.50762784664910
H          -0.89430010281579   -1.86021520716585   -0.14533988186791
H          -0.88458786313439   -1.19275529100584    1.25883867983623
H          -2.18507820069464    0.01374035978510    0.12211111122417
N          -1.04045297654482    1.54103036117479   -2.15328204682699
H          -1.58049842693328    1.39370278219840   -2.99904918912620
H          -0.15674785034791    0.91607365643734   -2.15334081863692
H          -0.75251614365064    2.51194992798445   -2.08607468150561
