    26
        -50.46357868  Gyration_radius:  2.3852064327 Dipole_moment: 4.786
 S           1.47990420596508   -0.65594241544288    0.35451300265651
O           1.39098437554558   -1.58589732201784    1.44745853504891
O           0.81691562237050    0.61916110601355    0.63166236418280
O           0.71150523628195   -1.28924946066668   -0.88470713147685
O           2.81788794236765   -0.40454290018419   -0.17071066833733
H           2.55036816309594    0.85053018566595   -0.85962028752862
H          -0.19528662962888   -1.57749828794193   -0.59474950784290
O          -1.70131875061625   -1.98150547755603   -0.17391984859915
H          -1.89382558305627   -2.89993560204435   -0.36877600606384
O          -1.35289764713355    1.02807214268830    1.96393443385008
H          -0.49117220600419    0.88407956536204    1.49303229522369
H          -1.20534399699235    1.73589254403404    2.59175531371891
O          -0.00699056914848    0.87230810736407   -2.37934311541565
H           0.23528952962613   -0.04662973087253   -2.18156233634515
H          -0.81733651160759    1.01894342864280   -1.83327229044939
O          -2.12161084838095    0.76850779233641   -0.74654277163891
H          -1.98721889975975    1.04275361633021    0.17260686853534
H          -2.20582381221294   -0.19354975087807   -0.70443866230600
O          -1.12462277210128   -1.69422929989505    2.31173076091072
H          -1.58870557016397   -1.92124724196471    0.82873211190779
H          -0.15509866351718   -1.72909650847924    2.16298358762887
H          -1.33971719567764   -0.75331878218628    2.43010966559100
N           2.16952156261009    1.78685797066655   -1.28918944558098
H           2.83497842817045    2.23106721469065   -1.91402161513441
H           1.93298711470438    2.38065216798438   -0.49828735222581
H           1.24662744523255    1.51381694830136   -1.78937790028122
