    26
        -50.45662713  Gyration_radius:  2.48366701994 Dipole_moment: 1.834
 S          -0.34072956233589   -1.25289842352084    1.61130032215460
O           0.60616961007316   -1.36274839633713    0.52145722243804
O          -1.67685544236354   -0.91457866879779    1.12643692587250
O           0.07806377133567   -0.39353492448378    2.69685667830035
O          -0.45202384543660   -2.71281431459336    2.22959762930920
H          -0.78258189446557   -2.52643465095231    3.10194195290451
H          -0.12276654800551    0.99887208966276    1.95321808127856
O          -0.29745433808262    1.86018293200445    1.49555975982886
H          -0.93143585688800    2.32051404228776    2.04879625837624
O           1.70817279483549    0.45017043859160   -1.18079280716488
H           2.15842500765487    1.13297584910058   -0.65006337754037
H           1.45467154436686   -0.23629019108672   -0.53842994219844
O           2.21409371364016    2.54293394585832    0.50597841145730
H           2.06750295997849    3.39337169648674    0.08790239108921
H           1.40264608622761    2.33429832765458    0.99902186124469
O          -1.97306039550412   -0.49657778296282   -1.33034313192166
H          -1.23315295477717   -1.16302140005803   -1.75656561377920
H          -1.95421881868867   -0.71240050538002   -0.32608293841624
O          -0.64288201749943    1.62186112223512   -1.20900306889247
H          -0.65290962476409    1.81195153134127   -0.25237486975637
H           0.26203950127704    1.23832658300079   -1.36565928111604
H          -1.51377018648560    0.44788837881113   -1.36389873920982
N          -0.07890443082000   -1.97505897708587   -2.09931436038772
H           0.58656035711396   -1.45977687438335   -2.66316177682570
H          -0.19781229575516   -2.90114331685160   -2.48675554788977
H           0.31221286533781   -2.04606849051608   -1.15562206921320
