    26
        -50.46302231  Gyration_radius:  2.50658804965 Dipole_moment: 2.721
 S           1.86738043233059   -0.79624904479801   -0.28858462731199
O           1.30088590172081    0.03545047681468   -1.34890474171516
O           1.01722462216775   -1.93178519824564    0.01665393420630
O           2.27938476475382   -0.02591080097256    0.86188711821756
O           3.19586625342063   -1.42082905440782   -0.89929974148834
H           3.81853339590147   -0.70547672805453   -0.81956411753694
H           1.19229178110231    0.58342193280205    1.89160536454191
O           0.50443278632834    0.90025370976039    2.52842028348481
H           0.95063621697714    0.99022484060477    3.37207617847582
O          -0.78596392478232    2.94839735780766    1.27141324190916
H          -1.66453450435578    2.95419020103227    1.65514893387696
H          -0.27756159522730    2.26950503462110    1.75416911298112
O          -2.42704606164462   -0.33805397407957   -0.81267379998244
H          -2.00971910239851    0.54989413320590   -0.96763839731213
H          -1.49019744903914   -1.13729921589982   -1.58583010929127
O          -0.86954979787327    1.74669800362016   -1.17287460839059
H          -0.00812133327683    1.30941909053417   -1.25622370502113
H          -0.81224085287731    2.30395627024099   -0.37259221859231
O          -1.13861472086282   -1.03957402874128    1.41513381476113
H          -2.15315479130304   -0.58885799149534    0.09958767418603
H          -0.37350770184711   -1.49170350066469    1.02018095738054
H          -0.75696125785017   -0.33131051387858    1.95445786450822
N          -0.58283193354580   -1.61646370893353   -2.02431302604194
H           0.13363160227701   -0.85310260758216   -2.09182273416500
H          -0.75037564422577   -2.09493559226162   -2.90165733151618
H          -0.15988709589602   -2.21985909105438   -1.29875532017991
