    26
        -50.46788069  Gyration_radius:  2.39858379383 Dipole_moment: 5.648
 S           0.45731813749346   -1.72102372294717   -0.29888484632365
O           0.22755757859557   -2.80000942564596   -1.22115406265009
O          -0.77639327103581   -1.03757865112927    0.07381091004202
O           1.42074754300244   -0.72924918997402   -0.83195310828223
O           1.09115522911243   -2.29255821603918    1.00688560358855
H           1.10744559532652   -1.55130394792235    1.65851071581170
H           0.51435837925498    0.14140377982927   -1.67710810554107
O           0.99985259459642   -0.28370476989881    2.75835002807375
H           0.96510148894808   -0.65730081138932    3.64050402108487
O           1.80886174388643    1.39809196732843    0.68445574529792
H           1.77409525694335    1.02936447258092    1.57632502966275
H           1.81708864412198    0.61029568901550    0.09716836701066
O          -0.47440297398263    2.44299677837290   -0.03414866145501
H           0.41182757373912    2.09208245632436    0.27281263851923
H          -0.37963720241972    3.39482053702919   -0.08780360936364
O          -1.76480544998669   -1.52830773956664   -2.41623643428015
H          -2.38996717249327   -1.55336726252223   -1.68583746936731
H          -1.03883833075445   -2.12706429887463   -2.12229707090491
O          -1.32276012709720    0.63064650961560    2.00398715876144
H          -1.29538809629619   -0.06433945917006    1.30959673327572
H           0.09148235882266    0.09687116002410    2.57489151269606
H          -1.23679700474237    1.45302872085827    1.50385791816236
N          -0.31197850370105    0.67005600946461   -2.11778085160904
H          -0.04914920871597    1.12178059799333   -2.98766545061711
H          -0.61697909326681    1.36222167908687   -1.40346907009542
H          -1.02979569908668   -0.09785287217300   -2.27681763144115
