    26
        -50.47273113  Gyration_radius:  2.44000827922 Dipole_moment: 2.885
 S           0.17527259628401   -0.14247074833215   -0.92954431275696
O          -0.81954170905815   -0.38926632087494   -2.09381822451423
O          -0.60090696128433    0.26955989773722    0.23664040473888
O           0.85227325533013   -1.41701384707018   -0.70231696896799
O           1.11631684908841    0.90129992558892   -1.31385237088730
O          -1.17694123655799   -2.94375115249798    0.14474433619890
H          -0.41832824840566   -2.48155979333297   -0.26097501831121
H          -1.88957519319002   -2.89038794468393   -0.49388460305481
O           1.91056590448107    1.38209915623243    1.17401791220864
H           1.75750522492495    1.26914875014214    0.21072721376851
H           1.14549424565168    1.87119950485763    1.48797723253185
O          -0.88783130740659   -1.35468954623951    2.32883958361918
H          -0.98255700489814   -0.62019144341607    1.68941698480086
H          -1.14762597251433   -2.13394150254903    1.80273315756083
O          -0.15258927704156    3.14558317863563   -1.91694618635746
H           0.12748630435595    3.43298192864292   -2.78748477182187
H           0.40474727245870    2.36853665156848   -1.69434221336762
O          -2.28457668794566    1.59723204249107   -1.41905846198539
H          -1.49810050110961    0.34697145357685   -2.00459836083311
H          -2.02115274783321    1.34185371206437   -0.52257385385107
H          -1.69267869318169    2.34287831455597   -1.65369868774263
N           1.64943009656783   -1.19694499764957    1.77512223032650
H           2.37755019287843   -1.74471676377828    2.21975308246511
H           0.67872928275906   -1.32763514412239    2.21868323363633
H           1.87471257044488   -0.16844302223105    1.74026007374013
H           1.50232172518707   -1.45833229931543    0.76417859885677
