    26
        -50.44164648  Gyration_radius:  2.64870409524 Dipole_moment: 2.669
 S           1.31882050768320   -0.16674197921477   -1.21295595142138
O           0.12337701629530    0.48505856674815   -1.67636789875990
O           2.39273714972054   -0.20993525305502   -2.14719363734317
O           0.93567870636276   -1.61945590780996   -0.75916720235391
O           1.76763298917522    0.44443611282081    0.11598351027231
H           1.28494910330990   -0.07858499718953    0.90135113706234
H           0.70619828809227   -2.06527521519688   -1.63531731601620
O           0.62488551125922   -0.80142914531252    1.94429452053730
H           0.64328899641044   -1.69953603107908    1.60295195086634
O           1.25314208998561    2.09549022265812    2.37381844208588
H           1.64704465546278    1.94957542603028    1.50625127556206
H           1.23287476175881    1.23034932070695    2.79555768782932
O          -2.30454265717249   -0.16773176764238   -0.86093388037075
H          -2.85374161108044    0.58845622850964   -1.07796578523309
H          -1.40803658993986    0.05518506462740   -1.18931289415098
O          -1.38621596739849    2.59568763380866    2.00848320932079
H          -1.70314206605184    3.09910286475271    2.75966390526543
H          -0.41243943607170    2.53848620493765    2.10652916795575
O          -1.80347617028991   -0.06241565377973    1.77956696669528
H          -2.06668398663202   -0.21396550552960    0.84613025814827
H          -0.36349673021873   -0.51984367287019    1.92365039989061
H          -1.77303073327409    0.91151163988521    1.88304754739497
N           0.53268217243035   -2.16303215647748   -3.24136310603335
H           1.30936489850511   -1.53917738805503   -3.43917077651621
H          -0.32247556165810   -1.68822811369822   -3.50128063188182
H           0.62460466334743   -2.99798648862544   -3.80625089886503
