    26
        -50.44164667  Gyration_radius:  2.64898151188 Dipole_moment: 2.665
 S           1.56650622031660   -0.74294544102543   -0.48570846342952
O           2.77653189709581   -1.32243699842004   -0.96307215978132
O           1.55149016971408    0.69409611620419   -0.42711430305863
O           1.23005326771418   -1.29126944035518    0.94588610845790
O           0.36126197397677   -1.24809180123162   -1.28125246906923
H          -0.44986810231546   -1.37412203635188   -0.61070439009552
H           2.04976292960858   -1.03123703644165    1.47410936619748
O          -1.52869476288328   -1.54033350322329    0.31346291763052
H          -1.07316818740657   -1.87930377720658    1.08873254565548
O           0.14142098322635    2.06844911460069    1.33583846465865
H           0.07293935987327    2.95212102831212    0.96839296223358
H           0.69039427005137    1.56116453394396    0.70109108895450
O          -2.16112207626048   -0.78653712202762   -2.51324159452709
H          -2.43796772054112   -1.33078876822634   -1.76904187102184
H          -1.20352317650550   -0.88512389337330   -2.56204038369081
O          -2.68700507105660    1.71062031792613   -1.59818750383601
H          -3.56522645519664    1.95840026116982   -1.89039006355540
H          -2.47708091144223    0.86335182648924   -2.04455200005845
O          -2.21105464971253    0.83576626821283    0.91142614886055
H          -2.43996790230553    1.24935856818148    0.05306914456197
H          -1.84740127384744   -0.59766653888304    0.57223646911652
H          -1.38882053498757    1.28560472145380    1.20322423648564
N           3.52532684894771   -0.40224598083796    1.69546268857613
H           3.44110047426073    0.60603132652250    1.72139215323623
H           3.85863483916362   -0.66423721381238    0.77254813073890
H           4.20547756979508   -0.68862453131790    2.38843276685061
