    26
        -50.44164684  Gyration_radius:  2.64669593779 Dipole_moment: 2.670
 S           0.04335656824141   -0.35986180992314   -1.76330998753886
O          -0.00353168762781   -0.60232450194979   -3.16571847307195
O           0.47677650078892    0.95644626325489   -1.37870253456064
O           0.98176410681103   -1.40471734820471   -1.06306097219681
O          -1.29782037542356   -0.68422705340639   -1.10186052664952
H          -1.10336789031075   -1.11938230356917   -0.15580514086199
H           1.86034766709105   -1.25762940327341   -1.53804060545807
O          -0.81544868769452   -1.70829437901565    1.11675010381085
H          -0.04819804239189   -2.25007274475792    0.91375933754655
O           1.78518899370715    1.46406430561240    0.86043130428116
H           1.68382712164689    2.40751601088934    1.00244173611945
H           1.32803350677701    1.27459357045737    0.01397827745714
O          -3.30397279977887   -0.07030798064395    0.81980513616913
H          -2.96413709169027   -0.04978763666945   -0.08191941009839
H          -2.93576019349161   -0.86711370039694    1.21510520206445
O          -2.04444313535445    1.87662821292522    2.22483651661267
H          -2.60454766124984    2.12498117430969    2.96158314533629
H          -2.57467519224317    1.26750281354849    1.66907111465289
O           0.06931423788829    0.22174089386793    2.51833639421086
H          -0.65037573317427    0.88656834805493    2.50545938991457
H          -0.46690075492914   -0.95528680703217    1.72313403029488
H           0.79826097715163    0.62150415243125    1.99646165024873
N           2.85834038233291   -0.59228006314996   -2.62412666043894
H           2.13619421758725   -0.47313929213446   -3.32824919089226
H           3.66556259026049   -1.03305401381705   -3.04693832499246
H           3.12621238524071    0.32593330276797   -2.29342155210408
