    26
        -50.46327885  Gyration_radius:  2.3677718201 Dipole_moment: 4.809
 S           1.01108577959651    1.04297427806690    0.13589885253444
O           1.10711587431986   -0.01693883358339    1.14394990478703
O           0.64178784423471    2.31292508187008    0.74526986336174
O           0.03793048604456    0.65856603933953   -0.89674677908973
O           2.37570565211576    1.19834190895193   -0.54230447894521
H           2.42552783083381    0.36177654938813   -1.14143910552130
H          -0.93919554407865   -0.66266113332024   -0.53426653215325
O          -1.52074729461094   -1.36500202071991   -0.17114059837839
H          -0.93404289832566   -2.12818177625144   -0.09622434902340
O          -1.72860594446331    2.16806035618460    1.49602798063687
H          -0.73464249026393    2.37696202499966    1.24727355240423
H          -2.17676049950674    2.03045904636899    0.58323173038037
O          -2.45186308292757    1.51739831322199   -0.85632153721305
H          -1.51117481124577    1.31592805780565   -1.06691265508809
H          -2.90422348295468    0.66827076585450   -0.87294759167871
O           1.06237247068761   -2.46700802880433    0.21582579382974
H           1.46630935479819   -3.04436201675852    0.86550307569418
H           1.10492399246096   -1.55829928898801    0.60087117897274
O          -1.29439660064605   -0.18266916890063    2.19155634789898
H          -1.64863511734620    1.18430166664832    1.91513790028119
H          -1.60977648314187   -0.72521438855848    1.42767661057682
H          -0.32098832539888   -0.14807864155090    2.04889524337231
N           2.21848005226504   -0.92448105932717   -1.97623720154345
H           1.43105429978571   -0.68264798236073   -2.56406716081429
H           1.91867264080574   -1.66410960482202   -1.34322620075494
H           2.97408630694620   -1.26631015477572   -2.55528382450750
