    26
        -50.44079373  Gyration_radius:  2.58742293095 Dipole_moment: 5.368
 S          -1.44690657935971    0.64573148979123   -0.97121827707253
O          -1.40007725196410   -0.44374382895387   -1.88319187692815
O          -0.19334893256562    1.26306138596015   -0.64581154582216
O          -2.12769781332584    0.20993482604724    0.36572517198475
O          -2.44485636788059    1.70410945457896   -1.47965592283093
H          -2.49326153307267    2.36485079999678   -0.74888369046536
H          -1.55208508603584   -0.51816404930506    0.79804892197175
O          -0.54951482290615   -1.43134531777768    1.46012503242633
H          -0.82641068822398   -1.71894172372721    2.33273438887050
O           3.37629657448579   -0.43417551059798    0.80216233261525
H           3.53826289912293   -1.35909384290024    0.99386005931140
H           3.02749363676952   -0.40666820707992   -0.13430777543506
O           0.16697464025505   -2.59255039298566   -1.08100585196228
H          -0.45303180627792   -2.02102524515216   -1.55541069834441
H          -0.02159796382832   -2.45202338706294   -0.14637127028924
O          -2.55102537602752    2.90769600751361    0.82861737109065
H          -3.42757019791915    3.11601243623044    1.16285533926145
H          -2.29676931144833    2.05125428426834    1.19499526933105
O           1.06323031976431    0.50638406997173    1.68427637108183
H           0.76265262309761    0.99395928699107    0.90043161581917
H           0.17249272226992   -0.71312172181704    1.60419329587562
H           1.98742279302935    0.22002206155930    1.46991871459115
N           2.11815306905517   -0.45907847335313   -1.53737956182307
H           2.53850385017972   -0.35227401468424   -2.45153177990526
H           1.41518778746324    0.26707615243213   -1.43483679740587
H           1.61748279534429   -1.34788653994749   -1.52833884594697
