    26
        -50.46977833  Gyration_radius:  2.43906764428 Dipole_moment: 5.759
 S           1.56979923105783   -1.01860208207954   -0.03479444664737
O           2.05698257759856   -1.10185634356695    1.31351027608667
O           1.63280559645131    0.32659278676272   -0.60040254258245
O           0.23818376858616   -1.58644725701392   -0.22550117332156
O           2.53579569321978   -1.91727878495190   -0.91176966845543
H           3.31531879267340   -1.90507085426127   -0.36820858392218
H          -0.90541668014291   -1.06793422902681    0.83902020615338
O          -1.58942033449342   -0.70547002119318    1.44704667664317
H          -2.07843332215970   -1.45526588808533    1.78866979370050
O           0.63870903864474    2.31529330408077    1.05497367712526
H           0.64262983160625    1.83474677368279    1.91090904212819
H           1.17055834284251    1.75842514139575    0.46606372354942
O          -1.03509027920648   -1.59945664074872   -2.53088388987702
H          -1.81740562614268   -2.14369545160242   -2.42902946534423
H          -0.49249951724148   -1.74045918629418   -1.72271300144970
O           0.51710173459128    0.42537673724393    2.94988335802630
H           1.18089973205251   -0.14450593326386    2.52393081816388
H          -0.33970154412195    0.06723808059337    2.67762436238350
O          -1.77435482097735    1.75209184857242    0.18105679714368
H          -1.15777483297036    1.32442540569280   -1.13951045631587
H          -1.93368747335008    0.94531649212213    0.69611414828898
H          -0.94983363972157    2.14171242978701    0.57961190242732
N          -0.52605806726592    0.97497263968414   -1.95139721344038
H           0.40250194443143    0.74760358818966   -1.49987240636421
H          -0.41259760480145    1.68690999634253   -2.66431307691062
H          -0.88901254115716    0.08533746794339   -2.35001882718998
