    26
        -50.46323781  Gyration_radius:  2.50252301227 Dipole_moment: 6.634
 S          -0.60134530614388   -0.39875950500551   -0.77756693430265
O          -0.03911031251501    0.94288186074813   -0.99736246572957
O          -1.81588441439703   -0.58345228814466   -1.56461474429364
O           0.38812011177455   -1.43874364583242   -0.96458565082986
O          -1.07320712267155   -0.43109616406856    0.70588724656219
O          -3.02171029456118    1.29920019040414    1.41450117323724
H          -2.29481525036460    0.64932847740157    1.32706189970413
H          -3.74955012293752    0.83387241278172    1.82996995001161
O           3.00408105706844   -0.96045428691876   -1.19821093516927
H           3.26434898181497   -0.83129072316725   -2.11071656762221
H           2.03932837632487   -1.13724286594793   -1.20963826819141
O           2.22057462905429    1.11041942601573    0.44255364174954
H           2.77727776122389    0.48105187549441   -0.04604881281259
H           1.42616064632280    1.21595992271751   -0.11433620730073
O           1.89241320950372   -2.64658802466442    0.96750061421618
H           2.73728743604782   -2.41416602465794    0.56823838429132
H           1.23537905597206   -2.48616897652145    0.26899467786065
O           0.94990985292549   -0.44349204767811    2.13308588951022
H          -0.22092763555638   -0.44227243009683    1.35982506117287
H           1.34643013008901   -1.32172534028682    1.92069078856774
H           1.51516807620301    0.22497783188992    1.65999495511306
N          -2.43742132366531    1.80829220489819   -1.13593845756503
H          -2.85820202859521    2.46298736664712   -1.78570690868448
H          -2.44637995778537    0.76780771273594   -1.45301390817274
H          -1.38972047883582    1.88949061905114   -1.06276001743142
H          -2.84820509629422    1.84918245220105   -0.17780441388346
