    26
        -50.46776453  Gyration_radius:  2.52580994341 Dipole_moment: 1.482
 S          -0.91694061621851    1.14687556564899   -1.48843175014635
O           0.37556101652498    0.84464578608178   -2.05344739896001
O          -0.77787939883529    1.75110246367179   -0.16085104614196
O          -1.84394685338920    0.03252065255520   -1.46962546174144
O          -1.57799745966362    2.24894352352618   -2.41450740139527
H          -2.48592560051367    2.23420742342113   -2.12922364644772
H          -1.56197964121795   -1.03565498313361   -0.31067302215730
O          -1.36440306918721   -1.66721908324881    0.42988972465033
H          -1.91141757495897   -2.43707195487245    0.26503298343617
O           0.97787954395186    0.67091179054836    3.23245170158263
H           1.13110024633615   -0.16108879265356    3.68316537614524
H           0.01683279628869    0.67500378445538    2.98214177549220
O           1.05150413783941   -1.63306101101661   -2.63499396322077
H           0.70608307778132   -0.72134473466154   -2.51192186886316
H           1.75320523549440   -1.56386581240115   -3.28407004154661
O          -1.43253992956297    0.50177890842769    2.16777362534487
H          -1.34235161865896    1.10629175124228    1.41046715132421
H          -1.50014748619592   -0.37765470450480    1.76380723273891
O           1.32089622401436   -1.75490635833075    0.02285176723142
H           1.54024352217891   -0.24625827769470    0.33473639348514
H           0.38288889569261   -1.86898611122778    0.26973935764102
H           1.32810288743351   -1.85031751187047   -0.95382782365842
N           1.55682411230287    0.78537949401708    0.63386858518155
H           0.68720984726383    1.24540769294184    0.26113559923328
H           2.37715090113505    1.25587014713665    0.26893353512399
H           1.51004679412579    0.81849034193678    1.68557863566755
