    26
        -50.46633706  Gyration_radius:  2.38592247743 Dipole_moment: 5.209
 S          -1.28398942815347   -1.01453330319976   -0.11107654845007
O          -1.16170740816281   -0.12371971801861    1.04738425411880
O          -0.85504972810478   -2.35492899422309    0.17936418570895
O          -0.32184441591160   -0.41953440942037   -1.22349991524783
O          -2.59408203244550   -0.88336110064242   -0.73570002578476
H          -2.46774997584803    0.40363854238151   -1.41425713728207
H           0.62123547913154   -0.68307489077158   -1.06371823198769
O           2.18391324190393   -1.06418655448309   -0.86797246078058
H           2.49174580255982   -1.67060193122867   -1.54305727259616
O           1.81356998400522    1.53937938950385    0.23268093653475
H           2.11553775264256    0.82082190585012   -0.33536733356484
H           1.71142721952058    1.13456572131259    1.10988780561961
O          -0.77219700677852    2.26200684767367    0.06758213040644
H           0.20517827334822    2.19141937403020   -0.01897484503930
H          -1.00318334965743    1.46434388021719    0.59683736323801
O           1.02065384708610    0.02697560238420    2.45391741014196
H           0.80174454786560    0.32575798482243    3.33737774406540
H           0.16171262298831   -0.05604641034895    1.96898326540578
O           1.58262396521263   -2.39204870286966    1.25428941963853
H           2.08489862483205   -1.61056091601956   -0.02632801463508
H           1.52347871518391   -1.67231192838572    1.90323264181206
H           0.66309882498809   -2.55400438515133    0.95387519634026
N          -2.21650913084054    1.36897997663395   -1.86628363248907
H          -3.04819602307349    1.91721637428812   -2.06156949277767
H          -1.68545151715479    1.18902126959174   -2.71288518536061
H          -1.57085889512227    1.85478638599480   -1.12472226700478
