    26
        -50.46271714  Gyration_radius:  2.39109176004 Dipole_moment: 5.049
 S          -0.08888941545369   -1.51983361318901   -0.51969930682238
O          -0.65715407862162   -2.43106183356397    0.43978569849014
O           1.23647008506822   -1.02583643781209   -0.11003717435614
O          -0.98454234986233   -0.36743512912725   -0.74293629489951
O           0.09034733580696   -2.22208039911613   -1.87750323199214
H           0.67211899725583   -1.56034470514348   -2.37883034915745
H          -1.81630432623748    0.20298193046007    0.50470887660167
O          -2.22315678132242    0.62818005482079    1.30511370812425
H          -3.17087933748491    0.60767079656548    1.16745143047240
O          -0.77821894720266   -1.17715665366084    2.75360855173176
H          -0.75535349056206   -1.82483969087180    2.01030562431685
H          -1.47269644503448   -0.54113482795674    2.50303737634373
O           0.10909252550299    1.87288401017228   -1.42454140411089
H          -0.28564022618260    0.98690922798386   -1.21451087214846
H          -0.58434747528792    2.37716298060240   -1.85436143903266
O           0.04370402394130    2.20850913510447    1.27608169353293
H          -0.86656225673363    1.88644581154623    1.38865049954736
H           0.20513562316717    2.22363334105726    0.30878848376495
O           1.25248994947243    0.13070122918922    2.08003506869568
H           1.36281104124298   -0.36895559918418    1.16072603152604
H           0.85038744151390    1.05394935218914    1.82377954113765
H           0.46881923773520   -0.41267172432691    2.52465898723155
N           1.66461931683110   -0.37702350737065   -2.79236357143179
H           1.23415886449909    0.53760483746355   -2.70146525488423
H           2.21797876480675   -0.39661526967721   -3.63938058323306
H           2.27561193312079   -0.49164334617526   -1.99110208953935
