    26
        -50.46776446  Gyration_radius:  2.52583002083 Dipole_moment: 1.482
 S           0.83982494236093    0.74882307400830    1.76232837042550
O          -0.14292350679271    1.58910686139246    1.07301475931043
O           1.98937639021307    0.50936249791277    0.92416026174734
O           0.22733130290295   -0.44794052625357    2.30460111350379
O           1.34563167283090    1.58384209664110    3.00976564128689
H           0.61233223316949    1.51095774641359    3.61219364285286
H          -0.67658533618849   -1.25393385807246    1.25718606890731
O          -1.24034091785475   -1.71709311805462    0.58338289057848
H          -1.46457877819085   -2.56382104715045    0.97306393993594
O          -2.54716107701888    0.69932663406417    0.15657125167069
H          -1.81562768380807    1.16772068477308    0.59536070654121
H          -2.32013173912435   -0.23907596097927    0.25148362088526
O           2.63530108768656   -1.93288918452194    0.18086148322103
H           3.56469224162776   -1.89537972340163   -0.04999016365274
H           2.42095468407232   -1.06180063945988    0.58208889701628
O          -2.11042189036047    1.34202851116902   -2.36711466563452
H          -2.42401291970352    1.18630512250397   -1.43778892290088
H          -2.47287605924846    0.62707222274414   -2.89276840464734
O           0.55207990818289   -1.55253528734392   -1.45219597941902
H          -0.17366601440721   -1.73291417805915   -0.82402556148455
H           0.53739022922468    0.00271581895129   -1.50161501847158
H           1.36361910031668   -1.81669824463301   -0.96778890907424
N           0.38329846925828    1.06535956143101   -1.46937430655121
H           1.17403013992857    1.55888256059867   -1.86770330992487
H           0.25952822886699    1.34496218706027   -0.46273378568808
H          -0.51706470795495    1.27761618827937   -1.97296360042579
