    26
        -50.44736163  Gyration_radius:  2.56266252967 Dipole_moment: 3.105
 S           1.25910080349413   -0.82614880776441    1.74075060748552
O           0.23043412804016   -0.13659782707206    2.52866650919140
O           1.59045274709029   -0.11427907296836    0.53337079935274
O           0.88857906776787   -2.21422978233736    1.51545138198533
O           2.55176715253375   -0.84335892433270    2.64120382609368
H           2.28149576344370   -1.39381338678425    3.36882575182884
H          -0.31938424293784   -2.31592912145695    0.52282739288051
O          -1.15502849454218   -2.25143164443591   -0.02399249741077
H          -1.56874535185572   -3.11597210276940    0.01636497685503
O          -2.01853568820270    1.81423699001621    0.14058184717284
H          -1.01806329894646    1.97430217892833   -0.07773034196998
H          -2.28269785504202    2.54607970203102    0.70153743745469
O           0.77011844639569   -1.13236527415634   -1.87888725626091
H           1.22891517481901   -0.81317769438473   -1.08448157326353
H          -0.01898002279224   -1.57658982352501   -1.55090640024985
O           0.43601130014804    2.17838874430828   -0.31800627031700
H           0.53553048525865    2.06483971903294   -1.30203859541963
H           0.92583802112371    1.42849422769041    0.06696251785356
O          -1.98444023347081   -0.29689343015047    1.43670861643700
H          -1.81156570750255   -1.05520587095367    0.79244612439431
H          -1.08356711021023   -0.21055215318024    1.97777093539179
H          -2.04915448325872    0.61903807194506    0.85654955674126
N           0.62333992918237    1.56003330688041   -2.91903681135199
H          -0.15608079802036    1.72886769145254   -3.54178116819697
H           0.67275355993244    0.55488983572081   -2.74232224395331
H           1.47190671754770    1.82737447826864   -3.40083509272595
