    26
        -50.44736150  Gyration_radius:  2.56293230182 Dipole_moment: 3.093
 S           1.89042120384298    0.23735897712379    1.29130085954080
O           0.51591873000591   -0.06663498246537    1.59572561525167
O           2.02499433815161    1.45870803342611    0.48850320657316
O           2.60769762013995   -0.86577715982471    0.67216317253118
O           2.61512413345162    0.53758380711277    2.65764263937627
H           3.52103323689206    0.64000153762418    2.38505852067265
H           1.88973233520876   -1.33012449120959   -0.64117949006430
O           1.41338358758220   -1.46156824152217   -1.51131499561509
H           1.99418721071072   -1.99596116401517   -2.05659024444005
O          -1.10823024555747    1.84322393066378   -1.65930511922985
H          -1.15959077311654    2.79809497078496   -1.73430851196916
H          -1.35588248857298    1.62475230619058   -0.67699082433466
O          -1.63838098439031    1.33546028203399    0.75516702944621
H          -0.84969740306412    0.92213296994646    1.15216418512136
H          -2.31536052315110    0.60620802651765    0.72469407923183
O          -0.68970906817592   -2.19067591575987    0.34531994314765
H          -0.27838208393073   -1.54097867179881    0.93874937954865
H          -0.16862947022192   -2.15590980907334   -0.46386318024895
O           1.24587606630350    1.08998601604759   -1.83112102116391
H           1.62280826637538    1.31777758103635   -0.87314482990939
H           1.24858717332585    0.08040979983714   -1.86152561526123
H           0.21012141927842    1.41534865009914   -1.80725055690908
N          -3.22415405374380   -0.81539573185445    0.54796236341854
H          -2.44025431567183   -1.46205341453923    0.44190844357726
H          -3.83210774568833   -0.92867242777091   -0.25289770864275
H          -3.73950615598274   -1.09329484861396    1.37313265034311
