    26
        -50.47319297  Gyration_radius:  2.45092705679 Dipole_moment: 1.784
 S           1.50936091339708    0.28414582926599   -0.27623817270165
O           1.31782433926416   -0.34888867492232   -1.55675355449034
O           1.46080953430735   -0.67053992805975    0.82657266421678
O           0.53492509185295    1.37143120464696   -0.06719873827827
O           2.92637273228007    0.93183284817395   -0.21851427033412
H           2.86600334150060    1.66896264166617   -0.85485684164510
H          -0.97340198579720    0.86907695442232   -0.47723446157482
O          -1.88615680746463    0.56696062344582   -0.70280311954957
H          -2.31396801094420    1.30855619812755   -1.13362954717442
O          -2.19859787722938   -0.84164697638245    1.67037598692112
H          -2.37443349502019   -0.32025062585325    0.87046489662537
H          -1.55339491568168   -0.30274126771498    2.18367653334979
O          -0.13462748242908    0.62958230408111    2.53595459502966
H           0.56380216816516    0.09547550425807    2.11351797570364
H          -0.17482122371381    1.41801393787449    1.98526234817372
O           1.95733373962024    2.99455531884547   -1.57108558845040
H           2.07003210345630    3.84987855649361   -1.15009686912327
H           1.22864957780886    2.54142566788235   -1.10298373214908
O          -0.90870211850760   -1.71399831406130   -1.93991665174033
H          -1.50734362732411   -0.97915082648362   -1.72976518641261
H          -0.02768241199382   -1.28555140587030   -2.01150318030823
H          -0.69905308902367   -2.35275858530943   -0.50806535441061
N          -0.47510686603108   -2.45257379948083    0.53214755562397
H           0.39819917482166   -1.89091982360928    0.68827420174617
H          -0.35645678027999   -3.41758353499132    0.81745276415780
H          -1.24956602505524   -1.95329381646039    1.07694574677298
