    26
        -50.45100472  Gyration_radius:  2.52665376287 Dipole_moment: 1.975
 S          -1.45656072854023    0.63711708655858    0.20215319908970
O          -1.87951292792121    1.71544806518805   -0.63594072070191
O          -0.21088754225129    0.88166072391048    0.88959122424062
O          -1.32272907006570   -0.66868333854918   -0.62544919573406
O          -2.54702711368414    0.26730968046209    1.19158483322452
H          -2.31857903783005   -0.68031164918066    1.51836518777837
H          -0.58096894107895   -0.58253758913107   -1.31313614911922
O           0.49679286692908   -0.33123599613303   -2.37862563795405
H           0.19079563865992   -0.62416931927056   -3.23969181529701
O           1.40976116426592    2.86527404418391    0.04749663400921
H           1.11187429405589    3.68521916095609    0.44503295657593
H           0.87406494941189    2.15672780868031    0.45184471303910
O           0.61805717154682   -2.58533852709009    2.05572410641751
H           0.95285674747681   -2.27490915232544    2.89851788507628
H           1.12379170762082   -2.08431414994733    1.35659212505296
O          -1.94409307589622   -2.10722409570881    1.77183802607702
H          -2.14939241341131   -2.55206466066278    0.94571358380326
H          -0.97116867045830   -2.27271634372953    1.92335103545607
O           0.20255842644209    2.22450183151180   -2.28611430775533
H           0.81672818359824    2.56650830920799   -1.60578582120533
H           0.48956468975000    0.67759089537138   -2.41059124841897
H          -0.66775351612659    2.22067459676817   -1.84974463522753
N           1.88221607733715   -1.01095444928106    0.31567224040693
H           1.28238357359697   -0.22352315057976    0.55304006172967
H           1.75608572026678   -1.18326860992390   -0.67477400782091
H           2.84114180631295   -0.71678118128340    0.45333572726072
