    26
        -50.46455206  Gyration_radius:  2.42087617948 Dipole_moment: 4.946
 S           1.15174470424866    0.41348489775442   -0.50545005373595
O           1.72934585208871   -0.40368687169692    0.54977514822548
O           0.68649779975206    1.70708223654330   -0.01690100017393
O           0.05512343085742   -0.31035992558596   -1.16402321642213
O           2.22738365809133    0.70480019973638   -1.57757483068451
H           2.56640723425418   -0.20942143207869   -1.79703378023224
H          -0.99701072304429   -1.03551384312008   -0.18522701584108
O          -1.66543143693858   -1.40337120356703    0.45077320740998
H          -2.06373803776415   -2.15724470063933    0.01370312005323
O          -0.75249287657629    1.69424519546986    2.04527930963966
H          -0.10883801231712    1.83553321514150    1.25725291211727
H          -1.69452264308026    1.51278915910830    1.56614511107767
O          -2.77848602101225    1.06616736309898    0.73156851440136
H          -2.53044340213189    1.40053881395275   -0.16897009307098
H          -2.62392156312900    0.10315433785750    0.68898927098036
O          -1.64404056288763    1.71356466457807   -1.56419140746476
H          -1.05061428229553    2.44653588490751   -1.37665550725390
H          -1.05988266735413    0.92924178489030   -1.58253330944888
O           0.00308958492676   -0.65783731731223    2.50862682245010
H          -0.45633869926616    0.76060373325018    2.41545417899062
H          -0.67188869268430   -1.16061587195784    2.02418773518247
H           0.77851545199813   -0.62812738867764    1.89875171361353
N           2.75170615921744   -1.84141656901335   -1.65642265262534
H           3.61453856956643   -2.35792652657452   -1.76648373945647
H           2.00882177340635   -2.34607040368483   -2.12138073477766
H           2.52447541209840   -1.77614944236495   -0.66765970296907
