    26
        -50.46407699  Gyration_radius:  2.36409203075 Dipole_moment: 3.028
 S           0.32755414183711    0.26764489602694   -1.33445683063642
O           0.97107585808323    0.98192586090297   -0.23021534823160
O          -0.73004620290839    1.05763651286804   -1.93276475831348
O          -0.19867293658658   -1.02237929924602   -0.86132075018631
O           1.39905350911685   -0.03632777422194   -2.40390477181910
H           2.09489091733059   -0.51902047608001   -1.86393105218025
H          -1.79308418888300   -0.80157036823670   -0.71440567986708
O          -2.70276257947209   -0.43487181377391   -0.57418397809913
H          -2.83188362648595    0.14954342135543   -1.32862323441453
O           0.06376826452903    0.19934457841949    2.07877684269960
H           0.20729541087239   -0.76799368623121    2.03368446320262
H           0.51242024290227    0.54597422971848    1.26677989905286
O           0.55634613036106   -2.33056661868096    1.26501187393790
H           0.30446394320505   -1.91315553770185    0.40768095001077
H          -0.04874554816598   -3.06323961879891    1.39070655397125
O          -1.12388283343322    2.83036843612220   -0.06743223577561
H          -0.21493032141252    2.91801710880437    0.23898111649932
H          -1.04221669623685    2.28287114825052   -0.88835288400383
O          -2.17550112367805    1.05816569568413    1.40015552305537
H          -1.28051164059730    0.63989501596484    1.80185831021091
H          -1.83753614478999    1.88906465330149    0.87459808789923
H          -2.50209365124918    0.40792899222120    0.65960885919055
N           2.92462878119813   -1.06160382076044   -0.55736210742653
H           2.67845033196886   -0.24133156183466   -0.01231128129232
H           3.93062515361995   -1.17133534648503   -0.54971516214100
H           2.51129477892301   -1.86498461759705   -0.09886241534067
