    26
        -50.46407694  Gyration_radius:  2.36420617128 Dipole_moment: 3.026
 S           0.79213526236985   -1.07147907706157    0.43033998446138
O          -0.66835730268424   -1.16681359817848    0.38996229201269
O           1.26912725291479   -0.79802053508574    1.77127951674579
O           1.25532027704644   -0.03221934783119   -0.50256640342535
O           1.37827012984719   -2.41656323128435   -0.05088435964700
H           0.93141744459668   -2.52595694139728   -0.94350711122768
H           1.62973467627725    1.23552953262191    0.42785042732170
O           1.68055745707897    1.92184908285561    1.14057383225273
H           2.03315896256199    1.44015934905095    1.89622956238682
O          -0.92036153233571    0.03986418766649    2.90342460997260
H          -1.54584921428142   -0.52729236637483    2.43988747837133
H          -0.03716236106224   -0.32314513582838    2.64177827208468
O          -0.05311136271072    0.92911493688702   -2.54378885652291
H           0.50867001231934    0.53109840961183   -1.83754996556036
H           0.43662662705985    1.68202530095490   -2.87856751858152
O          -1.75414326813237    1.04355393326462   -0.44784876102317
H          -1.45636758081903    0.14439373344638   -0.15855248239951
H          -1.29517135830103    1.18145551808018   -1.30167548637137
O          -0.80287607381424    2.17834627182885    1.55662348045780
H          -1.24876651342709    1.81779559726504    0.65702092510801
H          -0.92710126804731    1.38746478923749    2.21974251905610
H           0.22126469665387    2.20870480333907    1.39011346062808
N          -0.13742852742942   -2.29866454988112   -2.16704022240856
H           0.05528157862310   -1.49398570146685   -2.75170907118690
H          -0.87734208966803   -2.03590401351646   -1.52353129879392
H          -0.46752592459954   -3.05131097822629   -2.75760484366923
