    26
        -50.46073131  Gyration_radius:  2.41332239883 Dipole_moment: 3.482
 S           0.71093582646353   -0.89288956404789    1.69096097215669
O          -0.65283798881432   -1.15524152213220    2.10690480788661
O           1.25007404039347    0.35047520164502    2.18783746640360
O           0.87350849019725   -1.03164205692646    0.24201789744168
O           1.60254055114599   -2.06220994139091    2.29165481350338
H           1.51087073160994   -1.95744093654997    3.23351474402479
H           1.43236755158368    0.53741842205029   -0.10735261088527
O           1.62004903588144    1.46745066459993   -0.34463723910300
H           1.96198256435982    1.84555173596061    0.46992884596470
O          -1.21905345350243    1.42445059874581    2.00613621497461
H          -1.34212590781774    0.46423011053474    2.10643182449657
H          -0.29755073313025    1.53668739730732    2.27885273241931
O          -1.56497398429128   -1.82147231657853   -0.35523585501851
H          -1.97470870495680   -1.77526796113921    0.51561621820488
H          -0.61219789471856   -1.68961100579347   -0.15810513761449
O          -1.59030670601306    0.13715888654255   -1.98870481197650
H          -1.75323528341182   -0.64194324307262   -1.35405498370743
H          -0.61195920864907   -0.06779518681654   -2.37137218648059
O          -0.98861552496456    2.07262343333382   -0.54584703373472
H          -1.23435616496050    1.91438164144492    0.39909116900019
H          -0.00696446677490    2.01093477388675   -0.56167981036534
H          -1.43311326189002    0.99970089440140   -1.38289713184918
N           0.81806967893459   -0.36613864502095   -2.60254702445649
H           1.08908967502135   -0.90166576145416   -3.41654336197450
H           1.05768673462529   -0.89124363860673   -1.76413171028749
H           1.35482441368055    0.49349800907811   -2.57583882902340
