    26
        -50.46044997  Gyration_radius:  2.45581207145 Dipole_moment: 6.768
 S           1.45606321320094    0.51719533757399    0.23652943565297
O           1.54988034505879    0.93960115962303    1.60407201538540
O           0.38864596955543    1.19187455782420   -0.50264159889568
O           1.09683601556036   -1.02283651736627    0.19669166031873
O           2.72053087078036    0.56502569480003   -0.50148854035886
H           2.45291608548079   -0.29055155764115   -1.58460532237348
H           0.11132257844963   -1.16605074042037    0.19524963115740
O          -1.44079142662502   -1.53323647023255   -0.04017809405488
H          -1.62576355409444   -2.37549573377341    0.37861546757650
O          -0.31519394217140   -0.02958929830666    3.20280472912006
H           0.40816898017981    0.29617845451771    2.62239743279122
H          -0.30964258513263    0.55237923292658    3.96483894283176
O          -0.42496734315822   -0.40416579791852   -2.37109832282961
H          -0.22021960782469    0.35098157599324   -1.76599626983330
H          -0.97243322289526   -0.98476248801063   -1.82172699594277
O          -1.63829394498516    2.52565754758380    0.58242140092322
H          -2.03849138313746    2.96471116881655   -0.16955778822838
H          -0.81370416933759    2.11528939438907    0.24914923237203
O          -2.45460954541782    0.15699269153650    1.58413451371161
H          -1.77837046055892    0.05245021052976    2.28728349447795
H          -2.31519941359986    1.06489461387448    1.24671989368496
H          -1.90752855596121   -0.84132839103073    0.54332842965973
N           2.11725589754314   -1.00858251320137   -2.37652274014696
H           1.05601625221734   -0.84752583345644   -2.47420458711643
H           2.29505997180480   -1.94796162016572   -2.03391564759624
H           2.60251296506711   -0.84114468845979   -3.25230038228595
