    26
        -50.45212626  Gyration_radius:  2.45421986301 Dipole_moment: 7.627
 S           0.86091944025053    0.44585306984763    1.54812943510302
O           0.07977111573000    0.51196531744633    2.74617826800196
O           0.24783584698574    1.13214523403359    0.41939522544893
O           1.00014889856037   -1.07265650194589    1.09267308536658
O           2.27293624787494    0.83753200139535    1.70263375345220
H           2.84975229401430    0.32185486003844    0.58362773567578
H           0.07890749694017   -1.41296357151928    0.93243476469672
O          -1.44897215589468   -1.81431797628000    0.64597003046350
H          -1.76173358117178   -2.52729579649633    1.20509586891203
O           1.12979356923624    0.60046301741514   -1.88057035869205
H           1.04574705879556    1.39214453648951   -2.41548886056319
H           0.71249900778595    0.83987256209826   -0.98962128303310
O          -2.67430780634220    1.43511610440501   -0.94878847355697
H          -3.60677422466200    1.31306770371757   -1.13510434190664
H          -2.20927967479564    0.69352468586858   -1.39124982864353
O          -1.38949716881951   -0.74536243239597   -1.95550254468297
H          -0.47906187871458   -0.43284361702793   -2.04740458971958
H          -1.41467087451568   -1.26650032793020   -1.14025010599668
O          -2.35295724964488    0.39172279025326    1.55297295699912
H          -2.36590409781859    0.96572593544991    0.75758737422655
H          -1.89305606801015   -0.96597455198334    0.99869898890093
H          -1.55857514862741    0.63145506291302    2.06235681573000
N           3.18261549853387   -0.20096447296145   -0.38350296939803
H           4.14519559542630    0.00652387575247   -0.62751208483079
H           2.50296069560953    0.11342570334750   -1.12251548409782
H           3.04570716316418   -1.19351321156887   -0.21024338802236
