    26
        -50.46264607  Gyration_radius:  2.56118157725 Dipole_moment: 5.086
 S           0.13316840696002    1.10040619630705    0.05261680740193
O           0.51437532807155    1.72555634642706   -1.21123850891931
O           1.27313850385269    0.77748305835122    0.88613394251829
O          -0.76911021472212    2.11994519126565    0.77138697387309
O          -0.68782715202850   -0.10175973298241   -0.21242510801411
O           1.22519469692315   -1.18586446703473   -3.55751238122862
H           1.44567724376519   -1.37692963876763   -2.61442072502193
H           1.97803362807022   -0.70962186183413   -3.91263176111709
O           1.57922717704526   -1.30731852267369   -0.92215160783976
H           0.67766486217187   -1.09570196506356   -0.62072819368999
H           2.12639672559975   -0.68823440205562   -0.42712458795786
O          -1.69424437041632   -1.32845533954123    1.97562979368875
H          -0.88516434205212   -1.54167903725698    2.45538112908064
H          -1.40044278450365   -0.97780727205158    1.11519627285492
O           0.81010123519694   -0.42067797694879    3.17547923875266
H           1.63627975058622   -0.48927285849443    3.65529461853911
H           1.03130286237859   -0.00004348879985    2.31269637942778
O          -1.46453685780722    1.11265008360863    3.01295588192584
H          -0.62410712870356    0.82121519663512    3.40262190849108
H          -1.06735830539572    1.77182613225485    1.68130214345640
H          -1.87428151815458    0.26985977240261    2.71365446717361
N          -0.82826263303014    0.30173770438488   -2.79424250277191
H          -0.11970516472466   -0.32291046371082   -3.26934250953373
H          -0.25785502310829    1.08034341495068   -2.28188960173600
H          -1.54569308022285    0.64966552548687   -3.42010228437694
H          -1.21197182574984   -0.18441160485688   -1.96653977497583
