    26
        -50.47163232  Gyration_radius:  2.41171131397 Dipole_moment: 2.526
 S          -1.83496915303733   -0.66856321288006   -0.09239913373129
O          -2.20715155517411    0.72023896622534    0.12161108285652
O          -1.72229653340833   -1.43377356379011    1.12939530501896
O          -0.66576155537999   -0.78862961401270   -0.94901864374259
O          -3.01722540724588   -1.32773630540546   -0.92562984049457
H          -3.71127016199574   -1.41719675001156   -0.28043140824577
H           0.33852192124149   -1.60409696035871    0.15384264210304
O           1.01812161430773   -1.97769444470985    0.75050372143836
H           0.51127817191091   -2.44272199576910    1.42042656569089
O          -0.88643101661523    0.70156332934443    2.48500367690423
H          -1.38935812729224    1.24935096525695    1.86997745237060
H          -1.18189703067329   -0.19876317429926    2.25940899188650
O          -0.70549688530553    2.01835613441802   -1.56210857124063
H          -1.31504917198931    1.61248868883731   -0.89873123623425
H          -0.82548564746020    1.49087610777957   -2.35506514921004
O           1.86017463651735   -0.97222293791205   -1.90578608276585
H           2.16869961939995   -1.60548164289762   -1.24904351632319
H           0.89075477069264   -1.00541496886369   -1.83710997840765
O           1.65113119200019    0.47378668792801    1.72046595678031
H           1.59742415335133   -0.47603514472092    1.48856718057721
H           1.72114763163239    1.12800370032189    0.33753186088304
H           0.77971282168375    0.67444178951649    2.13427962000151
N           1.74599784251009    1.41871150732305   -0.70167197781153
H           2.43847133350391    2.14101763640729   -0.86386909875667
H           0.78439119447135    1.74219992898162   -0.99949511038494
H           1.95656534225785    0.54729528319239   -1.25065431914509
