    26
        -50.45034267  Gyration_radius:  2.64960726009 Dipole_moment: 5.089
 S          -0.53050470426278    0.38292947915487   -1.39729165249932
O          -1.75493768860523   -0.16602354238877   -0.87942216694761
O           0.63834670310826   -0.43553236818241   -1.27654060830719
O          -0.28181883821330    1.73151118787056   -0.68503652198282
O          -0.73358811991322    0.77355091731352   -2.86858828136851
H          -1.67004287659201    1.19779654402875   -2.90456328907391
H           0.67086706182653    1.72500936776379   -0.29434842068745
O           0.98044927960951    0.29497180136361    2.51704763183834
H           0.61233937831808    0.81778179407977    3.22997766248554
O           0.91640159282581   -2.71482757888633    0.27454454717650
H           0.87527422543813   -2.09467604062836   -0.46721978965614
H           1.71991866119285   -2.46891304017805    0.76691531113638
O           2.87728301228888   -1.63693442625268    1.90778591464240
H           2.29625715002127   -0.92961747051805    2.23240508260753
H           3.08125611359820   -2.19321807507793    2.66095329020323
O           2.00927538080605    1.39201390474380    0.30078203952619
H           2.20687942780531    0.60362344696338   -0.22033088268028
H           1.74119251482179    1.06043219047476    1.18746661154479
O          -0.88836701876803   -1.18678069747895    1.50970762380873
H           0.22163001604405   -0.25327003013999    2.14838619243503
H          -1.34399229918161   -0.82345797607247    0.73462388627371
H          -0.33421275503986   -1.91937166852041    1.14865728438387
N          -3.10515088566172    1.67590116091379   -2.53031024988326
H          -3.87428058207324    1.49089361442212   -3.16025864981570
H          -3.16938153423059    2.62983510020723   -2.20133368780795
H          -3.16109322515760    1.04637240501599   -1.73400887734524
