    26
        -50.45275423  Gyration_radius:  2.51542386108 Dipole_moment: 2.626
 S          -0.74072283014439   -1.47662285487249   -0.07142610898333
O          -0.78495173208180   -2.26278630781658    1.12159445216940
O           0.60182990158933   -1.18899570458282   -0.53087941468530
O          -1.49262914584322   -0.14170866704736    0.13069278978396
O          -1.54326978412005   -2.13653037651923   -1.17646870736560
H          -1.67087389662618   -1.43557776530281   -1.93108371359760
H          -1.07768517076844    0.40187313675780    0.87368906484771
O          -0.43685182230909    1.14436894005246    2.07590867762847
H          -1.11904644797790    1.36515896734381    2.71399867562239
O           0.42644750317646    0.82280523673244   -2.30725226953123
H           0.70368085790731    0.10590848199688   -1.71185891357423
H           0.31086255428466    1.60586198435886   -1.71737401717978
O           2.70666241553146   -1.22474499212264    1.16047102786816
H           2.02345882524927   -1.16894268670324    0.46658333109477
H           3.13238005707820   -2.07640663057434    1.04899347770004
O          -1.71868008299895   -0.41160438488795   -2.99216865681880
H          -1.52495324732682   -0.81868912872722   -3.83992105607173
H          -0.92627794560863    0.17870654676608   -2.77551889771923
O           0.72010897497568   -0.96712005528798    2.96412357703201
H           0.09282548437112    0.38930986153410    2.49265410915971
H           0.15141672807959   -1.60441571356992    2.49683831447486
H           1.58331285091421   -1.01745111885220    2.50492446673138
N           0.17123410785918    2.80434057111047   -0.45562726471095
H           0.14515744981254    2.32018581022454    0.43564092283628
H          -0.68240839993777    3.34121645968847   -0.54087684931573
H           0.94897278501624    3.45186041032014   -0.43565700739631
