    26
        -50.47063506  Gyration_radius:  2.48952815045 Dipole_moment: 4.093
 S          -0.70541652159461    0.92854663581906   -0.52535259501583
O           0.44403342745890    1.81405728487129   -0.40309140997497
O          -1.09251711155770    0.41237863668281    0.79028955227683
O          -0.44172797181478   -0.17105886061432   -1.45264181660862
O          -1.87717661916320    1.76551062255966   -1.08213608610536
H          -2.48111861966685    1.07672890838991   -1.48586017472773
H           0.67033417030179   -1.14707103951723   -0.87738560687074
O           1.39472777190293   -1.71824426967763   -0.50365427900064
H           1.33909288562718   -2.55329400751087   -0.97130494188078
O           3.15332332258069    0.34293745132917   -0.82302726288296
H           2.69350705415555   -0.51729143844525   -0.77926107810042
H           2.54787635998452    0.92541229082344   -1.29447479232372
O          -3.22119449666462   -1.13098160232547    0.56457999542246
H          -2.40917295063377   -0.59892394984309    0.71896795633915
H          -3.87342843197982   -0.80791332316880    1.18812457112332
O          -3.06866988739009   -0.31807295189625   -1.98661363576942
H          -2.15969281066216   -0.61722484114505   -2.13988640284267
H          -3.33678633065014   -0.74565758966225   -1.14626849853281
O           0.79558727388253   -0.92799195135615    2.06629023879361
H           1.07771025895953   -1.48376861989400    1.32051825431100
H           1.69836986426827    0.34713747944756    1.89877834012435
H          -0.02848266180656   -0.50059921280578    1.74425100042734
N           2.14204072467501    1.21589032093680    1.45606865775896
H           2.85577185645952    0.90310829849644    0.75410400039396
H           2.50247267228483    1.87818286794135    2.13247220183570
H           1.38053678081674    1.62820285022782    0.83651380192375
