    26
        -50.45310041  Gyration_radius:  2.47128313933 Dipole_moment: 5.234
 S           0.13581023240953    1.40203588614631   -0.02767633470808
O           1.25954384965007    0.55515316363688    0.28337969437367
O          -0.43959307850844    2.07443167521437    1.09758779571902
O          -0.94843901790905    0.56766158778625   -0.73855257222188
O           0.52679691119705    2.43490898348330   -1.08001258723034
H           0.84202188711095    1.92320209722480   -1.90798358935008
H          -0.83445220788394   -0.44572294331067   -0.59854592313133
O          -0.80883105433833   -1.91320299948434   -0.31191117412155
H          -1.61490262526158   -2.31101546376343   -0.64914355748907
O           0.71120991448956    0.10693892868824    2.89502185557454
H           1.10735158958198    0.19711462271427    2.01315011552639
H           0.27969337366196    0.94992039026394    3.06036709700830
O           1.37445479730974    1.07475305289122   -3.04545907172038
H           1.51198059098735    0.14449261468114   -2.67500558745676
H           2.24292936181334    1.40483106803343   -3.28638659979678
O          -2.71072845396190    0.71924255648038    1.62359772189129
H          -3.19318566831835    0.80307416481303    0.79942509524955
H          -1.94549396816560    1.31669795002885    1.54233923971737
O          -1.29299215983430   -1.54261030623710    2.16942992657451
H          -1.95630535074755   -0.82835838078095    2.10654290086896
H          -0.93160197651063   -1.86805725007149    0.69800406300869
H          -0.51276898566042   -1.11544313056086    2.58141787878046
N           1.78057895761848   -1.22812626014859   -1.84565041910763
H           1.81146075155788   -0.77646615441291   -0.93241200500282
H           2.61795716800936   -1.78745897277478   -1.94959030815566
H           0.98750514170425   -1.85799687054517   -1.82193366478921
