    26
        -50.46802630  Gyration_radius:  2.46791153677 Dipole_moment: 5.462
 S           0.14038793697921    1.12502040601586   -0.51613548702527
O           0.40957171504143    1.31015261832648   -2.01084656373714
O           0.58187863002891   -0.22105263453845   -0.11927561357612
O           0.90966815143506    2.14278416432987    0.18506890855191
O          -1.29573767188822    1.25594264626352   -0.26133196871131
O          -2.65869152145107   -0.69632177002913   -1.35569774900361
H          -2.18529134634083    0.03839439103978   -0.89999165340896
H          -3.52994904657353   -0.35599524103752   -1.56561315743053
O           2.44780532401399   -0.73121919981036    1.66404462443287
H           3.29711166996450   -0.69576679322931    1.22138800909873
H           1.77061101077461   -0.64261101396254    0.95206299552258
O           0.66199142609815   -2.37616092532783   -1.68303728288430
H           0.03553551095307   -2.98574137510961   -1.28827727068837
H           0.70815938156767   -1.60655432603839   -1.07870897787261
O          -1.32790624364543    0.21062436058130    2.13473984372735
H          -1.21026737285627   -0.71612267627851    1.91172967850329
H          -1.43543633167638    0.66853625616347    1.26641655431607
O          -0.70666640672106   -0.63120392324604   -3.19970062218807
H          -1.52677374125929   -0.73788996954963   -2.67214470580314
H          -0.03928824137316    0.55882965426974   -2.54539653258607
H          -0.12510028150346   -1.36441798182694   -2.90910675480576
N           1.02911805632470    1.30614258188446    2.59927763443673
H           0.06636643176771    0.87170566900906    2.64418445043669
H           1.21459956052417    1.93615302396252    3.37127016217144
H           1.73142878747948    0.53643702664265    2.51489581513415
H           1.03687462233888    1.80033503149826    1.64018567338793
