    26
        -50.45310044  Gyration_radius:  2.47131154442 Dipole_moment: 5.239
 S          -1.17693519301218   -0.39033424304582   -0.66805184292319
O          -2.35335778224787   -0.37467491495412    0.14758108225853
O          -0.18680690126192   -1.36396754044145   -0.28309632128241
O          -0.53591988451892    1.01187399339267   -0.67410854210662
O          -1.58213771280843   -0.59487479461148   -2.12447874676133
H          -0.73648657282644   -0.50325778880968   -2.69282450030755
H           0.33974075722310    1.05753930794411   -0.13495390402191
O           1.53317336285841    1.22347747256092    0.75075638569545
H           1.74640515450382    2.15736511031152    0.81504724419092
O          -2.07654966190451    1.80244559574553    1.71463095139622
H          -2.32752727883141    1.00896541821391    1.20810701138555
H          -2.00830135791955    2.50974110793873    1.07100381004714
O           0.58494578036757   -0.44012915732956   -3.43288543387611
H           0.65854120957392   -1.22167850946998   -3.98516566941446
H           1.31264275423405   -0.51052717271918   -2.73505948179305
O          -0.90457041414150   -1.65803521401444    2.30973811496867
H          -1.84087543017360   -1.48153008991456    2.18185862881929
H          -0.54083151803358   -1.74129636829354    1.41338365695675
O           0.16451931267763    0.75510259379771    2.85699359938657
H          -0.10929094261476   -0.18607367812873    2.85091481364165
H           1.09260168747203    0.98522257233723    1.63746825372224
H          -0.65109851234805    1.24700840470099    2.64053449771557
N           2.30618098275468   -0.77103695475192   -1.47433814551943
H           2.59816317953990    0.07351692712200   -0.99712768596899
H           3.10097353922377   -1.39696725135356   -1.51139259529188
H           1.59280142220338   -1.19787482620803   -0.88453519094326
