    26
        -50.46274739  Gyration_radius:  2.39311985009 Dipole_moment: 4.909
 S           0.35802602989125    0.52205274624247   -1.47730147011389
O           1.08050770776949    1.13136092959227   -0.34693618957906
O          -0.67139312206894    1.38504427322865   -1.99630886491839
O          -0.20353660076192   -0.77052775825934   -1.04306509721168
O           1.39154126791646    0.22293195409169   -2.57955837092521
H           2.12976131676727   -0.23267872870468   -2.06386546365658
H          -1.67441157297415   -0.71252529789866   -0.39140897165566
O          -2.52474834652882   -0.65340871295920    0.11827148283692
H          -3.15960253039558   -1.18922286919028   -0.35874277531685
O          -0.92055211230967   -0.45567949353071    2.35445726977184
H          -1.66189301133958   -0.64697027482128    1.75550201061796
H          -0.17215942210047   -1.00574057634334    2.03247746806625
O           0.87576732574583   -1.95207239261555    1.00450612458194
H           0.53853996703397   -1.50296408553070    0.18941555569421
H           0.57583737012226   -2.86137853046764    0.94932288630752
O          -0.38547558029382    1.87040853974814    1.51986888428694
H          -0.58171471539793    0.96083587187669    1.99109937781920
H           0.31332062072747    1.63392821039540    0.77887977323725
O          -2.31836982186267    2.06093941921257   -0.06365913704240
H          -2.70571527221019    1.17386421187186    0.04922388432361
H          -1.24646675225748    2.08642693030163    0.95150683724701
H          -1.78957557766708    1.99007220000764   -0.89311352822154
N           3.07989827024206   -0.74607376618713   -0.86499696018419
H           2.81196157537896   -1.60710575814996   -0.40391487748705
H           2.77188685226071    0.01951431783941   -0.27157734821046
H           4.08856615431670   -0.72103135975117   -0.94008252027087
