    26
        -50.46454026  Gyration_radius:  2.3744985524 Dipole_moment: 7.992
 S          -0.59189649434055   -0.79097360857786    1.15535666323878
O          -0.25936504433651   -0.88307493633986   -0.28255701435962
O           0.28838607900186    0.37506964172330    1.71071096259871
O          -1.97915821774754   -0.50670075244188    1.37419421801302
O          -0.07761295266486   -1.98342441217545    1.82893028299981
O          -2.17478656623273   -0.20673352830900   -2.01337244644172
H          -2.90125334142476   -0.83051797975125   -1.97322683273635
H          -1.50401855304897   -0.53332310022178   -1.37864605798902
O           0.92701651883568    1.07980749133690   -1.53527666267488
H           0.46686948349791    0.32052153028070   -1.10219963827168
H           0.53477793049989    1.15476519886908   -2.40725493129548
O          -2.76221646984415    1.63101506170147   -0.05637369427160
H          -2.68902481539824    1.18917358329758   -0.92096566360281
H          -2.69460513793379    0.90522695499688    0.59222500147335
O           2.71934773521763    0.32833653007757    0.45031429326591
H           2.06721718327806    0.55831703191996    1.13388195669867
H           2.38747313263563    0.74655521639939   -0.35985620889817
O          -0.34631039348524    2.46789987617888    0.47696932430144
H           0.13113671739575    2.27730938450624   -0.34895783258701
H          -1.31322061296233    2.33386786679736    0.27909045751182
H          -0.01918755426233    1.27091453556791    1.29145840520040
N           1.99132929011305   -2.20526809901163    0.40750510564765
H           2.40399093302410   -1.21901503347837    0.39950764781124
H           1.60698851844774   -2.40720275495227   -0.51242515025861
H           2.67373995161824   -2.90188934882422    0.68985512875964
H           1.11438269004490   -2.17065633963193    1.10111268598464
