    26
        -50.47006405  Gyration_radius:  2.43523021059 Dipole_moment: 3.752
 S          -0.70379904709005   -0.11788958137406   -2.07521412436688
O          -0.71532920221436    0.94457174880660   -1.07223999887737
O          -1.90377401944930   -0.91654392713484   -2.08277864520712
O           0.51997941714939   -0.89166224656519   -2.02456333046280
O          -0.69185447736398    0.65671028984697   -3.46780362298554
H          -1.05408443431713   -0.00420393984783   -4.04808658697283
H           1.74394580038572   -0.72675910786456   -1.05317394732461
O           2.51079182237022   -0.61842991619071   -0.42579051524516
H           3.25276445489489   -1.05405965290574   -0.84706732638305
O          -1.32753080237873   -1.77948308610431    0.36231555202035
H          -1.49837626072508   -1.63213819290235   -0.58530472026374
H          -1.89033341763560   -1.14352788875915    0.81952602519721
O          -2.18157025682750    0.85637637350742    1.07031114482189
H          -2.93985649678591    1.43173327379116    0.96399090410533
H          -1.69393215802260    0.88425408625256    0.20649954082918
O           1.46943454720656    1.85541824461006    0.11089084882146
H           0.69001012674887    1.66862233401728   -0.45664278302171
H           2.08726794173158    1.13148008917504   -0.08888779491082
O           1.00878546467996   -1.56373038890287    1.64258108249738
H           0.59303925005253   -0.17374435867665    2.11309577988059
H           0.19528344511519   -1.83820993832684    1.16474025892371
H           1.65893563926715   -1.36110866450473    0.94288140078532
N           0.28812300429597    0.86030286757162    2.22452419828682
H          -0.72113979021149    0.92027461414650    1.99672605721016
H           0.81731739438387    1.39218991449858    1.45874442859485
H           0.48590206473919    1.21955704383653    3.15072617404792
