    26
        -50.47006368  Gyration_radius:  2.43523554475 Dipole_moment: 3.749
 S          -1.59628536370153   -1.49533112410948    0.17566515549887
O          -1.59746271057879   -0.05144102055091   -0.04735505347758
O          -1.69347891804529   -1.86394622718749    1.56576965540400
O          -0.51451919775645   -2.14805120293626   -0.53339967889000
O          -2.94856576184086   -1.99871480377125   -0.50038820668682
H          -3.09254954253204   -2.81562123565884   -0.03482201329804
H           0.59425638679459   -1.50115569548250   -1.43953332471157
O           1.29776845704174   -1.07851748406374   -2.00518818864601
H           1.64280375972404   -1.78167911489424   -2.55679527541655
O          -0.87105729699604    1.66128573568079    1.76617538293099
H          -1.20857927947383    0.97998894973855    1.12864400026280
H          -1.64712213888147    2.07579241494767    2.14480818656044
O          -0.34066075427668    1.11300960593528   -2.06424816882912
H          -0.96525943665040    0.68368058343629   -1.43976435190259
H           0.26134473981535    0.39614866034015   -2.32790540029852
O           0.66764033653620   -0.73574761538404    2.01928312244159
H          -0.11020401338979   -1.30548749811867    1.88031357394248
H           0.30971094884064    0.10228913155236    2.33522360816924
O           2.47377809854993    0.01369645880422    0.19785130476048
H           1.94350185604712   -0.40383079294504    0.91206649801498
H           2.21431187697952   -0.45429052325227   -0.61880514283188
H           1.74213675021921    1.34427411625613    0.05756132019982
N           1.04686226983037    2.15947580914892   -0.10650629014679
H           0.38256443402559    2.17523868462024    0.68879200781381
H           0.48962973800429    1.88055323195613   -0.97888288647216
H           1.51943475171700    3.04838095593814   -0.21855983439194
