    26
        -50.46165246  Gyration_radius:  2.45530732445 Dipole_moment: 4.114
 S          -1.86954160242054   -0.92001274203999   -0.73324875703203
O          -1.71125597553347   -2.17886843691270   -0.04882207897989
O          -1.09456667263332   -0.81997472900803   -1.95953570689694
O          -1.65352014147550    0.23800694097895    0.13129838991104
O          -3.39538616059263   -0.82745189913016   -1.15857715868681
H          -3.55848748350102   -1.70493936865559   -1.48725232900110
H          -0.90761086945247    0.12902998328331    1.57165752470664
O          -0.37341896473822    0.03409291032520    2.39679852997480
H          -0.99273182733128   -0.21791848177954    3.08328189022497
O           1.73366883044600    1.37514290677534   -1.02275065309432
H           0.79543097419826    1.68078210820636   -1.31478042905351
H           1.79864786536191    1.49142964112511    0.02710628078004
O           1.46648140095896   -1.06502047798458   -1.39143967884739
H           0.55063766251920   -1.08195014517367   -1.75029911653695
H           1.71972728445951    0.31888990472971   -1.20824707355476
O          -0.67909822316081    1.81948138317023   -1.68722767115089
H          -1.13275767587876    1.43199282188096   -0.90558163036599
H          -0.81121554376637    1.13200038416492   -2.35589797205433
O           0.75983188073757   -2.04425793823088    0.94385080048928
H          -0.12231082290553   -2.30571127124451    0.61422894095519
H           1.38847057816144   -1.50324955576359   -0.50648541054387
H           0.57497516657445   -1.36730511479360    1.61306114418666
N           1.87466052211594    1.59078543936342    1.51766974407963
H           2.71341247760306    1.14738132873188    1.87089566778965
H           1.07126102832716    1.10077212214525    1.91156475808225
H           1.85469629194204    2.54687228571360    1.84873196472842
