    26
        -50.46182310  Gyration_radius:  2.41332735695 Dipole_moment: 5.186
 S          -1.43099440415573   -0.25216452127030   -0.95650697065589
O          -0.16040463914497    0.20336742936075   -1.52821107766205
O          -2.35041999246540    0.82826840351223   -0.73317009705786
O          -1.16620989025588   -1.02286289559100    0.26958453451922
O          -2.06434243805859   -1.24138707949840   -1.98190663591037
H          -1.44032879032752   -1.98919804326945   -1.97533793050186
H          -0.74402910574234   -0.08589766828545    1.50823617115331
O          -0.45835406012241    0.52169546608229    2.23727872972611
H          -0.80291573646374    0.14564048959789    3.04849949168351
O           2.03243356966143    1.00676385633305    1.21484300693024
H           2.19608915333349    0.16611725125768    0.68965743023490
H           1.26535365203898    0.81694778595220    1.78463245849147
O          -0.33857881092236   -3.07771264975462   -1.07744764757953
H          -0.79032707279564   -3.88062886269736   -0.80914900606872
H          -0.53992208072685   -2.39969663398428   -0.39514846902694
O           0.82817755625703    2.30569082792589   -0.53117813867150
H           1.45004933931123    1.83461595640434    0.22016404512086
H           0.46312330016915    1.51500002006958   -1.06669411205075
O          -1.28169921914193    2.70035017078336    0.77829049668115
H          -0.01114878870335    2.64607120467017   -0.00863167623044
H          -1.85859504583135    2.15171032386150    0.20050063294443
H          -1.08351550723305    2.12959800976524    1.54068969663129
N           2.12903197155553   -1.08341777582841   -0.39310711205574
H           1.32602748912600   -0.76743750167878   -0.93863180608973
H           1.91567767468428   -2.01904666105645   -0.07091169355836
H           2.91582186594099   -1.15238689266815   -1.02634432101226
