    26
        -50.46165293  Gyration_radius:  2.45517728349 Dipole_moment: 4.103
 S          -0.15687306946738    2.15086220196510   -0.48017325310842
O          -0.05937185724245    2.18236995200142    0.97057820340449
O          -1.51268966094841    2.10927940251148   -0.96824908365286
O           0.69391714668192    1.10923772230865   -1.05102757750396
O           0.46883048576818    3.51309395376974   -0.99980341359090
H          -0.23217468762742    4.12976537287659   -0.81817421100979
H           0.09198149256363   -0.19724572512096   -1.80796971186886
O          -0.31485978435312   -1.01621617164567   -2.18094804748592
H          -0.49572845056392   -0.82383011447337   -3.10213803984298
O          -1.16746850422786    0.00769416095473    1.96340801820038
H           0.01406337935230   -0.77708440575683    1.97836036036230
H          -0.83931981704334    0.90643782211539    1.73468233664734
O           2.22791155524529    0.77828488483005    1.02165292004804
H           1.75007252963640    1.48304046990994    1.48255189069806
H           1.85484807333336    0.84104762621420    0.11419483384584
O           0.96107216817410   -1.26415853732825    1.84937048683193
H           1.58447255946004   -0.49956191654788    1.55697917802279
H           0.84733809877414   -1.92028661762117    1.02659665001803
O          -2.31796658778508   -0.36126875471511   -0.37132806881919
H          -1.75825409719232   -0.82043354963548   -1.01644859713235
H          -1.72313654191878   -0.25297980320774    1.18576999746863
H          -2.23472789064531    0.58332920273411   -0.60815776588191
N           0.62798092802540   -2.81535631706923   -0.15107640528757
H           1.46074867935551   -3.32420182538828   -0.41875106985226
H           0.33964225803941   -2.23825616101411   -0.94141487281177
H          -0.11030842542619   -3.48356287261988    0.03151525227349
