    26
        -50.44799309  Gyration_radius:  2.63950091503 Dipole_moment: 7.731
 S          -0.86553157762318    0.78325197542692    1.17485624358640
O          -1.85651434034680    0.09634994424699    0.41328200193944
O          -0.02089581611419    1.68197816228609    0.42190277411401
O           0.04485303508494   -0.22461124402092    1.91883808775961
O          -1.50545277726483    1.54438862057312    2.33693769841208
H          -0.71627709020326    2.05963477237679    2.75117526336275
H           0.33728518376124   -0.98954084133767    1.30604149605366
O           0.68746720661575   -2.13281931530469    0.37890765565994
H           0.86931546400183   -2.93383667840337    0.87441965253765
O           0.20338743299814    1.06917733060569   -2.16877110239991
H           0.24596586649525    1.90493073548444   -2.63585722671470
H           0.08366809900501    1.28802186980118   -1.22413781034457
O           1.85242779173648   -1.23662458198073   -2.07070871325892
H           1.64119243627187   -1.56302864851425   -1.18651115807823
H           1.51801798558262   -0.32908367919317   -2.10247763424321
O          -0.69647591575828   -1.46379528220017   -3.10147929799268
H          -0.73027409445549   -0.51186849798247   -2.93614838417079
H           0.24744709531194   -1.68177729424105   -3.00364470696109
O          -1.56779621776081   -2.34973122257410   -0.75840920406640
H          -0.21164683497125   -2.29155436309726   -0.10019295273459
H          -1.95529164979435   -1.54227131556046   -0.38518986543404
H          -1.36882665304493   -2.13037882743556   -1.70377323273140
N           0.69678536599755    2.66766989990555    2.98038236298947
H           0.81049224649077    3.61954869796637    3.30254047889576
H           0.95583737207025    2.60539516378668    2.00003510267916
H           1.30084039589714    2.06057462940940    3.51798247115297
