    26
        -50.46167937  Gyration_radius:  2.40133238206 Dipole_moment: 7.739
 S           1.51038911242886   -0.01956262816671    0.37165489753512
O           1.80396501760129    0.51159105395636    1.66904312378669
O           0.63717148397556    0.85520709956688   -0.42257458319683
O           0.68610569207530   -1.36317009933530    0.54366549039224
O           2.66129553040503   -0.44689120913634   -0.41789899238423
H           2.00890971477301   -1.22590567476497   -1.41418268385716
H          -0.08048971741459   -1.18496187263181    1.15850838414026
O          -1.33728619888749   -0.84395696199617    2.08051575624643
H          -1.36541604278246   -1.41267044935841    2.85157575719011
O          -1.06359029968990    2.74364964144310    0.54219417646577
H          -1.85746234664062    2.36795261437141    0.15091669530150
H          -0.32033642547006    2.25634110068123    0.14628067901289
O          -1.90504058014112   -0.05780679335358   -0.61315692735078
H          -1.00308430920742    0.27346216146138   -0.45205733134601
H          -2.16968615602084   -0.46504470666984    0.21713836374985
O          -0.22033645660203    0.15039347540699   -2.86444427630416
H          -1.12300443318851    0.00493026476936   -2.54809813338295
H           0.18592651141680    0.70015053264002   -2.16588279357995
O          -0.42450933017455    1.43092359081922    2.82809718724061
H           0.49637352876022    1.22341451509069    2.57443889453941
H          -0.72453147679122    2.09339314148732    2.17372529452370
H          -1.07213933015276    0.07170384502775    2.42689369519569
N           1.33614936320912   -1.80940980787581   -2.07918270105398
H           0.67820449323154   -1.09500435419173   -2.53232229547668
H           0.80704098099155   -2.41625039154373   -1.45519350743386
H           1.85538168440792   -2.34247809757614   -2.76965418991915
