    26
        -50.47063280  Gyration_radius:  2.42470324232 Dipole_moment: 5.292
 S           1.66473947009168   -0.36257014677495   -1.12430109417326
O           2.33384972767842   -0.39011083264588    0.16614596062922
O           1.15813544062673    0.92872039732185   -1.50394300840978
O           0.63455188566886   -1.40530016058386   -1.20254280163364
O           2.77526927544527   -0.76282812505546   -2.17940755228363
H           3.36141004898869   -1.28605589030239   -1.64357320324056
H          -0.94749412452842   -1.10100401070227   -1.31280166769288
O          -1.92886219239261   -0.96625443277685   -1.25625189828128
H          -2.31609691430581   -1.59732869279592   -1.86440484827636
O          -1.07498699922485    1.84800214412585    1.43136241734493
H          -1.41166705944267    0.41826774762078    1.52978746744766
H          -0.09543537997825    1.95245487457886    1.47207908472155
O           1.55832166918466    1.98992442474871    1.06132117235239
H           1.91742512814772    1.10787812209861    0.84587151198342
H           1.55299990872699    2.45156248515889    0.21757213989436
O           0.58457039872436   -2.05815461227778    1.33897559144756
H           1.37221472152142   -1.54324152038525    1.55607682936369
H           0.58311203517876   -2.02973677385094    0.35727273878558
O          -1.37173001398119    1.80186114915049   -1.20128915707557
H          -1.29380779035825    2.02329288430299    0.48344718943761
H          -0.43758726572918    1.61861029346616   -1.41567297583292
H          -1.83049571692670    0.97258414733880   -1.38682548915477
N          -1.65885250317158   -0.65238691695308    1.45063408194439
H          -0.77541681022554   -1.22453588379846    1.56554356688805
H          -1.99306103044414   -0.81551205094882    0.48345640702389
H          -2.36110590927379   -0.91813862005615    2.13146752678462
