    26
        -50.45019483  Gyration_radius:  2.45243478972 Dipole_moment: 4.161
 S           0.68268846414651   -0.02932311184688   -1.86286268249913
O           1.91040162871024    0.31583768580158   -2.48690863037747
O           0.19721871553138    0.86775128285083   -0.84518250689091
O           0.83171844152958   -1.44746016111758   -1.25796207333249
O          -0.43682099878183   -0.19762944645091   -2.91475812801391
H          -1.28481441062766    0.18443864060535   -2.52685280137296
H           0.27192949308744   -1.56805729022719   -0.43168538345991
O          -0.46082537484136   -1.78529753380197    0.93491945140938
H          -0.30433100503628   -2.67889069563001    1.24521410797317
O          -0.67667668061162    1.73149085849686    1.56653443756219
H          -1.53225308801428    1.28869876886038    1.52946423262237
H          -0.29716179808679    1.61554816125126    0.68074757799696
O          -2.43487391828710    0.91592746306400   -1.73174237381825
H          -1.99886819780144    1.75010498125119   -1.53619811613691
H          -2.56125545252664    0.48345269351361   -0.86029418235538
O          -2.65395043892962   -0.22022426363746    0.72405297764293
H          -3.43966529418774   -0.73074500681078    0.92587762849289
H          -1.88840621580024   -0.82407978002532    0.80401017128867
O           1.04841913747585   -0.23016787821726    2.21139126595531
H           1.79018818462319   -0.05943141446121    1.57699723278964
H           0.50079860771907    0.58473952197518    2.19192727734912
H           0.15795926053554   -1.16934330341226    1.50585558652129
N           2.96001023871346    0.24028114952909    0.34210441626110
H           3.43209255367884    1.11950361385758    0.51836407136267
H           2.51258629552098    0.31714831263760   -0.56605025884037
H           3.67389186226647   -0.47427324806722    0.26303671186972
