    26
        -50.45019457  Gyration_radius:  2.4527206825 Dipole_moment: 4.159
 S           1.59509926591640    0.06777641695451   -1.17896695477369
O           0.98421324703354    0.73273286437346   -0.05616851017323
O           2.00681603527944    0.88838141940649   -2.26204434080398
O           0.61639955079261   -0.99974463913694   -1.72832691586008
O           2.78106425477434   -0.76596948946346   -0.64392235637122
H           2.70037983182753   -0.80827226600927    0.35962163598788
H          -0.07224021818668   -1.27031310260302   -1.04773023923872
O          -1.25744180337466   -1.63873103344828   -0.09319805431055
H          -1.82134673471546   -2.28814102221139   -0.51695815513607
O           2.39582953786844   -0.64652166352567    1.89966496695513
H           2.34311680279742    0.31139874725335    1.96047476449703
H           1.48852454108113   -0.96516290659808    2.09382552475229
O          -0.16793085215256   -1.40630341469794    2.36902045083301
H          -0.56995284212694   -1.53626385343938    1.48663368831952
H          -0.32513748825321   -2.20656573940315    2.87262137580994
O          -0.86167425167803    1.35891135644647    1.82161567727093
H          -0.76093559873551    0.55038237344867    2.33694745483802
H          -0.14279855120725    1.33060982977239    1.17004627521979
O          -2.36453217538975    0.61173592472830   -0.28158216341633
H          -1.88281432949684    1.04135131734003   -1.03335482722937
H          -1.76183788489073   -0.72841059125878   -0.16480043643341
H          -2.00979264690001    1.03865876383357    0.52848933109459
N          -0.89491577221802    1.71509994245894   -2.27967442182441
H           0.07454441594559    1.43797413971658   -2.16055165678726
H          -0.92446601920885    2.72700210484313   -2.23359059504270
H          -1.16817030480400    1.44838452123925   -3.21809151818813
