    26
        -50.47294859  Gyration_radius:  2.44392528321 Dipole_moment: 1.561
 S          -0.91088729059078   -1.78610096843309   -0.32932907865813
O          -0.76852053483715   -1.42666435348577    1.07097631942983
O           0.37246020526802   -1.89711718431228   -1.00546808363873
O          -1.83648838740878   -0.93467726823208   -1.04911294640753
O          -1.54763878309210   -3.23598269236465   -0.33270913932144
H          -1.74310437300650   -3.34685418466332   -1.25628419648363
H          -1.46075459757014    0.59319246362026   -1.34176067885685
O          -1.16812883049541    1.51326377905066   -1.57216421918281
H          -1.91759300691597    1.92362741611347   -2.00614871620376
O           1.83998305129589   -1.45627948325237    1.22728241376279
H           2.04421772020484    0.09367473348994    0.80920231790025
H           1.88856906510992   -1.90947429603426    0.37502164004450
O          -1.75000983270051    0.73820827091249    2.23305706034019
H          -1.49434970601941   -0.08491265201510    1.76597415076422
H          -1.69383632263436    0.53882186060855    3.16874463525099
O           1.27232125272741    0.34702266534668   -2.09900094623872
H           0.97141184422287   -0.54971564398031   -1.83466328309346
H           0.45871622640863    0.87194697886402   -2.17235486552109
O          -0.15732598617077    2.36601542647954    0.82561625206964
H          -0.56408673294604    2.23477246200853   -0.05114892775691
H          -0.74793574830131    1.88004913970932    1.43971968021842
H           0.87662508682062   -1.47686025422607    1.41107736741586
N           2.04251440132958    1.03281728706735    0.32129651901888
H           2.91183186441310    1.53080115050370    0.47323519540483
H           1.20152347456461    1.61197702267493    0.64122840643164
H           1.88048592034367    0.82844833455658   -0.71228688669530
