    26
        -50.47676514  Gyration_radius:  2.44755622715 Dipole_moment: 3.269
 S           0.20389007185843    1.30732278731753    0.61253872509702
O          -0.10124539932360    1.53988820333704   -0.78422053679098
O           1.22239530409831    0.27673296137339    0.78161832901452
O          -0.99234449537559    0.98566008767005    1.39639011566964
O           0.78398762433021    2.64460692164360    1.16917999085827
H           0.80569143152027    2.49692200650363    2.13451310402925
H          -1.73418669143029   -0.32850429309942    0.82819567158403
O          -2.13181709649697   -1.15688172896262    0.45724666799163
H          -2.94342775108159   -1.30393125988844    0.94561234918977
O          -1.53940996124158   -0.28427533225141   -2.08659383971917
H          -1.11738653512549    0.52310729005871   -1.72453391583461
H          -1.97844417006394   -0.68561763046520   -1.31792681972176
O           2.22861655960844    0.50377227067839   -1.64033414464936
H           2.16775962010658    0.36915986775757   -0.67249459966905
H           1.56196524015346    1.19081194584990   -1.78633172243071
O           0.14955859772766    1.82810417174745    3.60414459862623
H          -0.40187005132299    1.34167069917072    2.95895887837789
H          -0.44295369230482    2.40318777573039    4.09365202843630
O           0.41521524028378   -2.22660254764081    0.39135907577031
H          -0.54081827717379   -2.10186946358272    0.50777907656715
H           0.67212407616541   -2.04348900006402   -1.16934421895038
H           0.81180158120950   -1.38153679508918    0.69421656104799
N           0.72563026859121   -1.61575974260770   -2.14426922457679
H           0.95553805389554   -2.29671287368978   -2.85811796082372
H           1.44024355121286   -0.83291346229173   -2.08749221349515
H          -0.22051310981392   -1.15285286920630   -2.30374599560416
