    26
        -50.45459362  Gyration_radius:  2.45326749656 Dipole_moment: 4.884
 S           0.23916000154261    1.36984292499701    0.33120269592075
O          -1.11420369760593    0.89928738447463    0.53628219846132
O           0.42297164680276    2.23606217751849   -0.78968202662610
O           1.14748971588045    0.13122110902087    0.17796788654749
O           0.75294220875138    2.03939660126233    1.60069255159402
H           0.37209610246745    1.47224186588601    2.37015018878932
H           0.53213522087803   -0.69098638422680   -0.01797501722062
O          -0.52457721478062   -1.66150268122567   -0.30482834670631
H          -1.27400072022117   -1.14455509220075    0.01656813303744
O          -1.99678965068751    1.22657775373402   -2.03456881643055
H          -1.45655128265081    1.97330258733627   -2.30650987055817
H          -1.87617143598964    1.16288063040725   -1.07502877170253
O          -0.39622837767875    0.44227098107694    3.16804151273895
H           0.03935232553458   -0.44350995461440    3.00526999944451
H          -1.18858923131205    0.45404337613268    2.61875032694014
O           1.54898002521433    0.63375513073103   -2.68565027295791
H           1.18755332562714    1.33684555149758   -2.11984637569210
H           2.30055724893810    0.27537080939517   -2.20987242139321
O          -0.62704784986102   -1.00152761626609   -2.77698298321851
H          -0.56647197198057   -1.56932505041651   -1.31662717228443
H          -1.29250641048800   -0.28901477554964   -2.70548547006279
H           0.21474708271470   -0.53187863443647   -2.93562737119363
N           0.75528947044478   -1.86958065436299    2.47422929424930
H           0.87908956590897   -2.60554785442653    3.15827368385006
H           1.66976317738698   -1.59168522432338    2.13893191241182
H           0.25101072521584   -2.25398495152335    1.68232450204373
