    26
        -50.46167939  Gyration_radius:  2.40130659226 Dipole_moment: 7.746
 S           1.51142624333279    0.32905651994605    0.16274739778317
O           1.80072702801540    1.26459643248309    1.20803240361313
O           0.43081370683249    0.77757799332660   -0.72582554885139
O           0.96893859719366   -1.01188604602676    0.81232499433726
O           2.65690351277730   -0.13121121277319   -0.61605484359961
H           2.08711334316584   -1.26646488585475   -1.25792705416734
H           0.23285469144210   -0.77894596495470    1.44587975897012
O          -0.98931333959821   -0.37663159613288    2.38939150778560
H          -0.84916351815113   -0.68373488164303    3.28648161708517
O          -1.51440954487996    2.57892827488825   -0.12292918693658
H          -2.25123747920588    1.98294700510641   -0.28547564579000
H          -0.72582000895538    2.11828945388842   -0.45829534708853
O          -0.46584862219738   -0.75537047790627   -2.73475593137480
H          -1.29866425573188   -0.93733742672880   -2.27723865115127
H          -0.11648069647403    0.03478115760176   -2.27742868622779
O          -1.90378431986474   -0.53347055451419   -0.31886588266252
H          -1.06971508361233   -0.03324591521779   -0.37622072456570
H          -2.02178041047391   -0.70880206550013    0.61956951115242
O          -0.46383123214344    2.13097500631710    2.33743126608690
H          -0.93274582039606    2.51045972062854    1.56725365964001
H          -0.87440346070640    0.63046846651464    2.42500889203866
H           0.45705757587018    2.00300841890899    2.03573553902101
N           1.48639890090811   -2.12077842227597   -1.63792491929251
H           0.67260646826794   -1.68779530037477   -2.18470371506823
H           1.13112046730962   -2.58703177651386   -0.80486825046040
H           2.04123726729356   -2.74838190327712   -2.21134216027441
