    26
        -50.45514394  Gyration_radius:  2.42749268341 Dipole_moment: 4.701
 S          -0.98003785431346   -0.71841689998658    1.06890989519691
O          -1.19551588473398   -0.35017818120754   -0.31753128896569
O          -1.68158397792409    0.09035592134220    2.01170780784207
O           0.54811681625559   -0.63984453246292    1.34591606186587
O          -1.26971262474087   -2.18868443227347    1.25430600617488
H          -0.93405005888192   -2.63974479591007    0.36425718743047
H           0.86087688264290    0.31779804931207    1.27071891562131
O           1.22056125606544    1.82161208894606    1.11180402268155
H           1.74776198275122    2.14122852389588    1.84661929638922
O           1.00726060030671    0.71588365093856   -1.51595310433321
H           1.32476070131130    1.28601558631118   -0.80647552608093
H           0.18455073358418    0.32112506036348   -1.18200705776355
O          -0.45490270077484   -2.98850314810578   -0.95570748062490
H           0.51585978062375   -2.68529435880957   -0.98827900086197
H          -0.93833044004488   -2.35675298242017   -1.49748290658858
O          -1.82240330680249    2.16218352282679   -1.19850011297448
H          -1.82484013906460    1.21954993753911   -0.96550776136086
H          -1.09429346890803    2.27716384967362   -1.81553655030925
O          -1.17275317424449    2.68056266688226    1.36849895750104
H          -1.53174888584485    2.71510078379042    0.45712877779070
H          -1.55337664591392    1.87818009096453    1.76526337123019
H           0.30894776273972    2.26165809942522    1.20845527482521
N           1.96272103630119   -1.98116019894221   -0.98432262520253
H           2.20704345144766   -1.86857997221551   -0.00816584191418
H           1.82949260430393   -1.04736259798507   -1.37451620991676
H           2.73559556381741   -2.42389572192221   -1.46360010760619
