    26
        -50.46167940  Gyration_radius:  2.40130552513 Dipole_moment: 7.742
 S          -0.99075924068426   -0.59960491287544    1.03809171268287
O          -0.96260769082126    0.59636842321496    0.18523862402740
O          -0.65305762595940   -0.32222011447078    2.40209347319803
O           0.11167246389176   -1.55923906756244    0.42328633468813
O          -2.22472348859485   -1.35001116206112    0.82656438178394
H          -2.04728376386854   -1.75265972352312   -0.52680505389227
H           1.01035802221874   -1.16567123727456    0.61023405116773
O           2.42373289798723   -0.46809927393510    0.85813189147168
H           3.01762674464084   -1.04942212688440    1.33572898877432
O           1.19290586567523    0.69306607519313   -1.45117093398627
H           0.47744375950305    0.65796691876692   -0.79081148422108
H           1.96483543723167    0.34241646336272   -0.99675025880066
O          -1.43304447435990    0.45690290145880   -2.45134504456243
H          -1.51743007155197    0.76013193774140   -1.52596375223157
H          -0.50472556741059    0.62536473643749   -2.66566139739753
O           0.41908426190008    2.88821702403569    0.66338784887296
H          -0.25984411916633    2.19823014038591    0.56547043789387
H           0.93408763841290    2.86187067111303   -0.14814260215577
O           1.50917671244649    1.24736014509174    2.52772024063490
H           0.69353026903303    0.74015889170298    2.70909447913422
H           2.16174209324922    0.25594803949520    1.51833662590557
H           1.21460660544451    2.02546303627550    2.01301906786558
N          -1.72373939686785   -1.99361016491331   -1.56239862669126
H          -2.37430252077665   -2.61968363710310   -2.02638818378950
H          -0.80222350823229   -2.41567196454366   -1.46129962955124
H          -1.63706130334272   -1.05357200912165   -2.06966117082820
