    26
        -50.46167940  Gyration_radius:  2.40117195168 Dipole_moment: 7.744
 S           1.21567368141771    0.45416153304565    0.85762368167333
O           1.03445065731631    0.28930001218080    2.26884976827724
O           0.08184611503802    1.12594311696633    0.20826716313997
O           1.27812517408433   -0.97778139389957    0.17952567452090
O           2.47628071386866    1.06190443752215    0.44310982956755
H           2.47442307858829    0.72911492821073   -0.94083011496473
H           0.49009871065995   -1.50725998221759    0.48975079021058
O          -0.82073022853512   -2.29464106879838    0.94437539751236
H          -0.59591732150024   -3.12555574136376    1.36597590988025
O          -1.47340379239544   -0.55668306590325   -1.23512183588705
H          -0.93470283430435   -0.00359091275456   -0.64092659097720
H          -1.54019578698601   -1.40572421325504   -0.78797860525507
O          -2.47042302077932    1.24983093650579    1.13678669642105
H          -2.87249097805972    0.83185196920072    0.36988492416758
H          -1.54825838841728    1.42947835427172    0.88410375110267
O           0.00794945642134    1.51561759915687   -2.44395320417172
H          -0.68200150309529    0.84779683523166   -2.56246063473455
H          -0.03422585683871    1.72761451614623   -1.49069891256682
O          -1.42347330216642   -0.62581705851376    2.79317827319138
H          -1.15182691101412   -1.69172507009792    1.68982929670561
H          -0.52640247388605   -0.23963271931177    2.83359221516817
H          -1.98042391683668    0.06874736979011    2.38763384084487
N           2.31381087769347    0.35696320837710   -1.97550602964399
H           1.41458469928525    0.82696146390441   -2.32071612432162
H           2.16140095546207   -0.64530151595692   -1.87666042886195
H           3.10583218509648    0.55842645143968   -2.57763475087619
