    26
        -50.45514396  Gyration_radius:  2.42746981454 Dipole_moment: 4.701
 S          -0.34290828721460    0.63464597164015   -1.44883031460992
O          -1.70806235164185    0.86093153276685   -1.79564953639234
O          -0.03951237179986   -0.72904437093168   -1.05823866720729
O           0.05864016320361    1.56398424327428   -0.26847188114963
O           0.60157015674614    1.07098862980031   -2.54315777924173
H           1.51856176867786    0.61469661924158   -2.30008781653941
H          -0.53023865592305    1.37626054402031    0.53062943804728
O          -1.48637828330270    0.98544617038284    1.69212745995330
H          -1.88754276052467    1.75648074747375    2.09787510664675
O           2.62129395548559   -0.16208401855121   -1.77612234129609
H           2.20285090064645   -1.02206700379387   -1.66793082555474
H           2.77992647658429    0.18193894219679   -0.83172018738849
O          -1.81751180195183   -2.47461887654033    0.07029063155792
H          -1.32174712617302   -2.67872373879198    0.86819939542412
H          -1.19597235836958   -2.01344827181158   -0.51608040363876
O           0.57288589005310   -0.99427781891014    1.58366336784198
H           0.39690438355206   -0.99105442104357    0.62805257305666
H          -0.09346969124201   -0.41428165399523    1.96939422135961
O          -3.21835822720486   -0.17294982448397    0.21229545685331
H          -2.23371709891591    0.51121677606271    1.19149692524509
H          -2.93392603875100    0.20703267292584   -0.63672129536214
H          -2.94180669683670   -1.11278397290509    0.18200016821174
N           2.79400550172015    0.66692294451167    0.70251740727788
H           3.67545084209364    0.75692321117078    1.19038899133639
H           2.20256461470880    0.01281475392374    1.21663040438777
H           2.32649710633840    1.56505020235823    0.70744950116731
