    26
        -50.44824550  Gyration_radius:  2.63895786047 Dipole_moment: 4.530
 S           0.52651912286836   -1.64209151920859   -0.13443882752671
O          -0.64184290297314   -1.34175734950524    0.65252066454726
O           1.74194318489512   -1.03321074368466    0.30431988032290
O           0.23395528197300   -1.24246466449424   -1.60912300954952
O           0.69503508135277   -3.15577548505862   -0.25546516599559
H          -0.26522088667988   -3.49755094973809   -0.42553399192285
H           0.27332385801103   -0.24058521934514   -1.72691966098552
O           0.44835686854475    1.30154337344676   -1.86633118778425
H           0.75503657309988    1.52623589302706   -2.74696691109218
O           1.03776936850074    2.58518765553221    1.88459824427740
H           1.49923349298735    2.61394900296871    2.72299097394839
H           0.27793430279400    1.95890538993016    2.01104715816927
O          -1.06620723088676    0.98783601693402    2.00959878149118
H          -1.50309605787608    1.49536937372708    1.30247497091796
H          -0.91214459518428    0.10440163479483    1.63759505613801
O          -1.32347433185240    2.66943569421396   -0.14935040574825
H          -0.84609352493657    2.18925304427046   -0.84095978790843
H          -0.66390062674981    3.20519889367254    0.30217398661137
O           2.35621054861369    1.54827832818473   -0.20093662561664
H           2.38252204282508    0.61022218229370    0.05512456884750
H           1.23698445140390    1.46863679902893   -1.23594673750485
H           1.95785450046779    2.01380556108524    0.56961589913499
N          -1.80006565832698   -3.58486229200647   -0.56996896500254
H          -1.95952877992551   -2.72995232131940   -0.04329722420535
H          -2.29862692070209   -4.34886612025922   -0.13358847256651
H          -2.14247715224986   -3.46114217849635   -1.51323322099656
