    26
        -50.45209632  Gyration_radius:  2.57753084279 Dipole_moment: 6.604
 S          -0.75183891634923   -0.41489484389357    0.72070108594402
O          -1.21649939357744   -1.44918028527243   -0.14710464913532
O          -0.90363713619271    0.92136048635154    0.19799484176253
O           0.75408573652079   -0.62878899660405    1.05535731376258
O          -1.40023634751201   -0.53501438450028    2.08801849102732
H          -0.82523537551092    0.02697413490823    2.73466199747865
H           1.27163654694576   -0.75920420193046    0.19247571521184
O           1.94228077408449   -0.82592826283759   -1.18635276411787
H           2.80482062513382   -0.40880405742749   -1.23107946569954
O           0.29594343366881   -3.07023616931531   -1.85113496513357
H           1.10184756348970   -2.55153966848071   -1.74961503406800
H          -0.27921696759842   -2.79361627400442   -1.12433774850938
O           0.18905204132162    0.85273555520790    3.45647468045029
H           0.11994719763564    1.74644004576050    2.99994876168970
H           1.01577657826759    0.45672902873162    3.16695471430401
O          -1.43671477952465   -1.29382634779851   -3.02020199717191
H          -0.82524892292421   -2.05044970793377   -2.94708350306536
H          -1.92378128317948   -1.30699127101392   -2.18896593455936
O           0.18808640519499    0.66726118787025   -2.27279425297067
H          -0.28962622300716    0.94604410555701   -1.47402691585630
H           1.30368845631260   -0.23049535212004   -1.71431197112349
H          -0.42170736945407    0.03574978498685   -2.72971719505381
N          -0.09862726906893    3.00901744711249    1.96496402114712
H           0.67232642462666    3.56951548032988    1.62446573456365
H          -0.83832032003987    3.63996070254056    2.24614236116519
H          -0.44880149935093    2.44718187377200    1.18856666757894
