    26
        -50.46455201  Gyration_radius:  2.42095408382 Dipole_moment: 4.945
 S          -0.98060310326377    0.01550382400133   -0.88976021304836
O          -1.68061441902214   -0.73452150396147    0.14742285962445
O          -0.07955535715800   -0.82004130372870   -1.66730640793786
O          -0.24401685240711    1.14186666481209   -0.29892925993611
O          -2.06618555411953    0.60566443227299   -1.81967218529256
H          -1.52364726802423    1.01914296760619   -2.55005387914703
H           1.15486834544256    0.77501748322316    0.40827611834490
O           1.97211607293714    0.49813278213035    0.90013143638875
H           2.56589232290132    1.24973185124023    0.87646738945753
O          -1.46025606418304    1.27945214594952    2.07676046133640
H          -1.03309829821743    1.40253406941544    1.20547707803069
H          -2.21250219989055    0.70927896474128    1.89354461411579
O          -0.28236223439609   -2.21633983340072    1.62121584141019
H          -0.96493468152495   -1.72003033961195    1.03551584042082
H           0.02030871911559   -1.47358944907298    2.33282232991643
O           0.44931371464169   -0.28323966644365    3.01875226439316
H          -0.29333138551991    0.35529762579001    2.86028875739609
H           1.17482248463550    0.03468107883008    2.44816205099296
O           1.58300174252526   -2.05318490021513   -0.05556459115316
H           2.05146275861061   -1.26921963170404    0.27460420820417
H           0.53666760816604   -2.31916640570554    0.97695906365190
H           1.01802399155324   -1.71570731399538   -0.79108449284856
N          -0.17771297437687    1.38655686252146   -3.42850668411065
H           0.32511731933355    2.17059045878999   -3.03447449460149
H          -0.11411531768002    1.43266087492014   -4.43705117671815
H           0.26134062992415    0.52892826155733   -3.10399690880914
