    26
        -50.46658032  Gyration_radius:  2.40011709361 Dipole_moment: 4.039
 S           1.30688742105698    0.22001433361010   -0.09859576629369
O           1.06407996708685    0.87692584963929    1.17284400254699
O           0.29498964395677    0.62452211897599   -1.08877875241227
O           1.34070723298118   -1.23291492714017    0.01649859982493
O           2.68170852589375    0.71330077504270   -0.61594029085988
H           2.76435853800622    0.22424317111699   -1.47810340310855
H           0.06864465713488   -1.86059299914511    0.72945805993844
O          -0.78553817700748   -2.17765941882108    1.13231351596853
H          -0.65884028751954   -3.10672825986190    1.33013012297303
O          -2.45189689975925    1.27241388668993    1.06381657299915
H          -2.44637709994241    0.54316402574053    0.31173983392189
H          -1.80545027373555    2.00300150677717    0.70514109631525
O          -2.03471057603412   -0.51986000103555   -0.65060306922091
H          -1.18267750460871   -0.14002838638459   -0.97158960284199
H          -1.78449274038588   -1.28569067099579   -0.10475989576326
O          -0.61053440443472    2.74751220092386    0.14411571408982
H           0.06501673632611    2.70941255634655    0.83374756465784
H          -0.29300328945430    2.08163413930864   -0.50990668937285
O          -0.94068420395306    0.06691276960382    2.65502097493152
H          -1.91267734032891    0.80732395176703    1.84747919449984
H          -0.99420142109562   -0.85741386366371    2.34873747115814
H          -0.09414498667956    0.39909163711531    2.27253958002531
N           2.26782966908873   -0.85000956375429   -2.65576225578865
H           1.93713629331529   -1.50201024732544   -1.95126427237214
H           2.74935321097726   -1.36005305858489   -3.38530489408470
H           1.45451730912055   -0.39651151593358   -3.05297341172748
