    26
        -50.45408636  Gyration_radius:  2.49822140773 Dipole_moment: 1.866
 S          -0.75047985507226   -0.92959308702495    1.19345324772524
O          -0.58089713529820   -2.34947621014324    1.26848835630349
O          -1.57886631906043   -0.47722199968755    0.09395721750677
O           0.63635897774172   -0.25254718666503    1.05984015039191
O          -1.27231627471190   -0.37084892116990    2.49723252381524
H          -1.63686475656665    0.59103415227391    2.23676153740308
H           1.10211529405798   -0.55198567859425    0.19397391693834
O           1.63731585568462   -1.07742402763204   -1.11858130122547
H           1.58701348448321   -2.04967575914791   -0.97894423689734
O           1.01754909399313    1.84111310058159   -1.63699097150206
H           1.74553814980796    1.23110765304099   -1.48948115723723
H           0.32236454002027    1.31903795064965   -2.05647907666164
O           1.02011944253159   -3.57741281133099   -0.47139670887797
H           1.56809187956715   -4.19243301616181    0.01924932225898
H           0.34784751638952   -3.25002947115652    0.16087052381685
O          -2.04272041224519    1.78871536255396    1.56777508041961
H          -1.15904940805178    2.26322237627858    1.38194913631087
H          -2.28911566440661    1.36496063758293    0.73620440833120
O          -0.65064997925913   -0.34553402308347   -2.35496528076572
H          -1.19462193686144   -0.87354641188022   -2.94151102411435
H          -1.08278097723862   -0.37722828708927   -1.47063527975140
H           0.91422996730253   -0.87337181879260   -1.74570038618715
N           0.32143608023599    2.74876026237462    1.02804745553378
H           0.50377714217623    2.58807645341087    0.03619679098343
H           0.92181929995504    2.11424087505838    1.54139779034563
H           0.59278600479980    3.69805990572336    1.24928798506804
