    26
        -50.45408626  Gyration_radius:  2.49824036918 Dipole_moment: 1.867
 S           0.75157371173630   -1.39595502965615   -0.57918938828572
O          -0.32333214130330   -0.84705115256398   -1.38127775753451
O           0.48237735614565   -2.68848344016184   -0.02456318239421
O           1.05387633228476   -0.39807317007733    0.56627632108348
O           2.03842211762578   -1.39710344901252   -1.37168802402081
H           1.97614430876135   -0.51834018082163   -1.96339365660393
H           0.23993847475488   -0.30348213771912    1.18691951224411
O          -1.04343720264386   -0.26663378503696    1.98448194209416
H          -1.17424240916409   -1.21827286648525    2.19555573553446
O          -1.19747834864746   -2.91689539763741    2.03066234228009
H          -0.63436741810384   -2.96530235709925    1.23100628473625
H          -0.79570512098843   -3.50346650026528    2.67383341861474
O          -0.88380277885687    2.43454213021951    0.62428562908181
H          -1.54457440510105    1.91178630862673    0.15317706546161
H          -0.77014513971933    2.00157418155533    1.47483469916220
O           1.58143444866551    0.69046558135813   -2.61814065388145
H           1.69008632176243    1.39674908480213   -1.88986158449123
H           0.63750804575896    0.49046176284781   -2.64600804782266
O          -2.44071098803882    0.23219412969871   -0.27336017662124
H          -1.68950235758099   -0.16614297250119   -0.77019497448162
H          -3.23348335184741   -0.21078159140854   -0.57992583106315
H          -1.71645012686763   -0.06295607958573    1.30380829907363
N           1.75172834221803    2.30699191318665   -0.57888427623505
H           0.80289485016352    2.49954465216586   -0.25411478134549
H           2.25781199434634    3.18244550555687   -0.61277274933903
H           2.18343546469692    1.71218484988729    0.11853384464995
