    26
        -50.45408642  Gyration_radius:  2.4982931329 Dipole_moment: 1.868
 S          -1.40840245015746    0.90367634831732   -0.23657235117984
O          -2.67539322621162    0.28283110405465   -0.48152350336043
O          -0.47814092458136    0.83582451161944   -1.34552862250421
O          -0.73982573677490    0.23906175711483    0.99255251787538
O          -1.57799002632348    2.33807482158143    0.20825919963269
H          -0.61683036339752    2.76528168865150    0.06674168388764
H          -0.56407445369195   -0.75791157973849    0.81314798906312
O          -0.36191518633594   -2.19268737640938    0.38487219870388
H          -1.27559957169417   -2.45533051742958    0.13236242527830
O          -2.85938016500145   -2.37498134006040   -0.49666751393271
H          -3.63006140139047   -2.61729893431530    0.01968511598375
H          -2.89675677048679   -1.40175260336709   -0.59838548874790
O           0.75091002629709    3.03246918070579   -0.25521551224779
H           1.26389199695255    2.55543870305370    0.48658716671116
H           0.79488343432707    2.44511201265126   -1.01991673359445
O           2.42316336930734   -1.00627186228874    0.47942538751286
H           1.82872078836592   -1.59245978244293    0.95565746767600
H           2.16974767011427   -1.07813727036428   -0.44927538131333
O           0.86481320191008   -1.35370811600537   -1.87132091891022
H           0.11919455719369   -2.10079118782381   -0.46236632433561
H           0.69532707970266   -1.63470748051042   -2.77190602380830
H           0.39240564625176   -0.49768115909882   -1.75320058629710
N           1.87706578150243    1.60551443825268    1.61455746193208
H           2.59294879592667    1.97220362063954    2.22832087045070
H           2.23356763023149    0.75121432423889    1.18345424698575
H           1.07773028794953    1.33701670897440    2.17625523849143
