    26
        -50.46192231  Gyration_radius:  2.42603969071 Dipole_moment: 4.593
 S           1.37731712809307    0.11790885607520    0.18141323735567
O           1.02432616769432    0.45392667300141    1.53961491203607
O           0.49325974258557    0.81075216025233   -0.77593267984148
O           1.33461743727228   -1.32089092718044   -0.07368221568239
O           2.81841941706360    0.62276329851168   -0.08636514338233
H           2.96878811033318    0.32605893186851   -1.02227521788831
H           0.02555179872317   -1.99385796602444    0.51565968783462
O          -0.85998326121559   -2.33798505613511    0.81758718755024
H          -0.75122517991976   -3.28273301415204    0.93549860895313
O          -0.81055489856647    2.79004432160016    0.29651401158975
H          -1.00808566314199    3.37557654084129   -0.43704088633981
H          -0.19379459880214    2.09828890795941   -0.05608830499176
O          -1.82631176828685   -0.42051892086015   -0.88566077799628
H          -0.94017533416333    0.00441948376995   -0.98977627487211
H          -1.65390873200067   -1.26778302838081   -0.44081521981517
O          -2.55076690850732    1.07128370772692    1.00864969835891
H          -2.40895530506623    0.45580036760451    0.17538399308839
H          -1.93933110958314    1.86921406625019    0.81990982557815
O          -1.22464788830545   -0.31097932854595    2.59102751801196
H          -0.32558271855190    0.04591927387661    2.37931510942862
H          -2.05741240996006    0.51770191761550    1.79369959473910
H          -1.23396806476247   -1.18395147723923    2.15368296453624
N           2.58819395639209   -0.45949674442004   -2.45447354041777
H           1.88323270716326    0.09752342416237   -2.92014079169134
H           2.10680597389958   -1.17053000064194   -1.91067230915983
H           3.16419138161669   -0.90845547752749   -3.15503297697836
