    26
        -50.46194471  Gyration_radius:  2.45224035735 Dipole_moment: 2.253
 S           1.74925309392349    0.42574407364678   -1.15726038277728
O           1.76283955255298   -0.80337682499294   -1.91427139268056
O           2.05642495940991    0.20423757218326    0.25213355330210
O           0.50738529541390    1.17080610731318   -1.32607350977096
O           2.87516358679072    1.38218541817634   -1.71763865522318
H           2.36289822220998    2.00115291321914   -2.22699030511536
H          -0.83258089734383    0.39331632256577   -1.11300302953389
O          -1.69389339756934   -0.09500893075903   -0.96634184925178
H          -2.18670104174460    0.00225781392376   -1.78351892348673
O           0.21830590236700    1.66164826376793    1.63127569263821
H          -0.31992032554180    2.19387163969163    1.02406113559755
H           0.95034142917526    1.28767677249487    1.11106651708159
O          -0.15483543780962   -2.44275507907493   -1.17758400799187
H          -0.88664619307136   -1.80503552665324   -1.16444829500978
H           0.58535141715479   -1.96744552557797   -1.61789518167716
O          -2.17449193663972    2.40901066465682    0.38511434090697
H          -2.67276073063100    2.24790583352694    1.18907302104883
H          -2.15462361531146    1.57645275095382   -0.10749814936684
O          -1.31037555569523   -0.45961797923610    1.85807465523886
H          -1.70309531392089   -0.43809255381917    0.97581935312380
H          -0.07016356616740   -1.42261880121472    1.65266959062117
H          -0.79235376935668    0.38745883433588    1.93248188567244
N           0.77973629007390   -1.89440813893301    1.20854641091754
H           1.43083460637615   -1.11991324537823    0.91466020003147
H           0.43882986608322   -2.34372668571408    0.30674027557687
H           1.23507754926784   -2.55172566910346    1.83080707012730
