    26
        -50.44824550  Gyration_radius:  2.63847913236 Dipole_moment: 4.538
 S          -0.02361006021384   -1.30219054874779   -1.14475621098307
O           0.40620015469023    0.00797827573615   -1.56094398879513
O          -1.36637598960823   -1.39035849227406   -0.66559045707622
O           0.96405569641069   -1.81343321544300   -0.05675522770059
O           0.21425308074571   -2.30807060285352   -2.26987203472579
H           1.14788949382241   -2.05484675149138   -2.63345491957013
H           0.80654052307183   -1.34255506993884    0.82198393777601
O           0.44382496254648   -0.65569056749405    2.17384460107569
H           0.65367029947059   -1.23223053108370    2.91117700612400
O           0.61374435577870    2.15254563618585    1.97725139996076
H          -0.27504295490926    2.35046536436801    2.28828314228427
H           0.71832374873226    1.19433043350810    2.06626251548758
O          -2.41572494200519    1.99161591399096    1.22384335572911
H          -1.75071312148046    2.15402998678597    0.50475449093193
H          -3.26486635732277    2.24456543795026    0.86089631397866
O          -0.47840829048188    2.37732343197663   -0.53421951277187
H          -0.21659972204829    1.56970495100237   -1.00506906326572
H           0.16878276868148    2.47982656003821    0.18635907664315
O          -2.07452866726190   -0.59523661153544    1.81734077704964
H          -0.57730016499348   -0.62903477779093    2.11127750275638
H          -2.28713175564534    0.35648673735572    1.68158336464072
H          -2.05683630779210   -0.98146866306573    0.92473610845791
N           2.47571206837637   -1.31823450483807   -2.91332127418539
H           2.13380584231681   -0.43389518804979   -2.54625753558218
H           2.78407655083868   -1.19162923375164   -3.86805226258965
H           3.25625878836975   -1.62999797056353   -2.35130111559153
