    26
        -50.46194383  Gyration_radius:  2.45223123454 Dipole_moment: 2.250
 S          -0.56246318995291    1.41311263974980    1.50595272824343
O          -1.42739139500896    0.23760028230001    1.49622608264081
O          -1.03767986088812    2.44234094309719    0.61228462034667
O           0.82971365738176    1.05776585011905    1.25782169859786
O          -0.58042926614442    1.97260732083707    2.98353147904652
H           0.34344218869581    2.14302533022021    3.13328235097803
H           1.23355715747169    0.72072341643907   -0.21496720894225
O           1.49661586378444    0.49201742674550   -1.15319810019086
H           2.20238602267301    1.10151001211147   -1.37790636219373
O           2.85516607372297   -1.54359985143553    0.37539250735417
H           2.51874878919035   -0.86208938900799   -0.22343135275040
H           2.82000275288942   -2.37680988594182   -0.09908984445560
O          -0.93459745025488    1.69581828659011   -1.90572646000952
H          -1.01259378349689    2.17055023030550   -1.04773858236954
H          -0.03550554727224    1.32968217994881   -1.90617670610061
O           0.25274887135364   -1.89753751211395    1.34358484570612
H           1.17699526557423   -1.60932349811577    1.40976783332127
H          -0.30249070070777   -1.12827668080790    1.55881995984011
O          -0.02482164489667   -1.94353000180055   -1.26585963309230
H           0.58833365321054   -1.22834606542058   -1.47944546532893
H           0.09135067185707   -2.10251241335947   -0.28985167058710
H          -1.41082234748027   -1.18342089688886   -1.17031164339055
N          -2.13645384752941   -0.42938597070518   -0.95344023800143
H          -3.08284439425875   -0.72025254679021   -1.16880632993516
H          -1.83713840329920    0.44034854604724   -1.48766222129173
H          -2.02382915661272   -0.19201776211872    0.06694772256552
