    26
        -50.46122200  Gyration_radius:  2.40336103941 Dipole_moment: 8.891
 S          -0.00507763635969   -1.74936626921052    0.01380267707728
O          -0.34222072953624   -1.05220948540304   -1.22410578832692
O          -1.15538329949704   -2.22144290211475    0.73176015987371
O           0.73153473201375   -0.66858652232363    0.92876521495137
O           1.05761998709639   -2.72967321617792   -0.20066561442148
H           2.17597290593303   -1.87524464216895   -0.42980827647348
H           0.06520161057355   -0.08196332771706    1.35956085155899
O          -0.98598474566355    0.98286676666148    2.05227364900027
H          -1.02094473034584    0.87488866116613    3.00350298296777
O          -0.10400242388369    2.47414058552678   -0.07412697479716
H          -0.37554458509487    2.01685194770475    0.74104066146646
H          -0.25315149864218    3.40980857596992    0.06910456035810
O          -2.19091919612891    0.88468358565617   -1.32745052308576
H          -1.57787899041703    1.59404583681972   -1.09436648659433
H          -1.62329343627989    0.10565040252035   -1.47417089828797
O           1.47806380092886    0.74679694329130   -1.62894995232682
H           1.12362763841491    1.46960099129153   -1.08867486635986
H           0.73930096745583    0.08978459181632   -1.65794695112102
O          -2.93771676774919   -0.24226230124316    0.99083500670766
H          -2.46852819360915   -1.09623762133631    0.89366388836058
H          -1.84085467571395    0.55262663430724    1.68661507880766
H          -2.92450314698576    0.16729722306955    0.09769421432470
N           2.96232726148110   -1.10276121488006   -0.56274807601556
H           3.70300672359659   -1.43351011945565   -1.17308589151724
H           3.32154690832735   -0.86373556200027    0.35631369744681
H           2.44780153008539   -0.25204956172842   -0.98883235358606
