    26
        -50.47037227  Gyration_radius:  2.48246236826 Dipole_moment: 2.685
 S           0.46709805197754    0.45736191114346    1.26395193879407
O           1.15060921181734   -0.66222555903570    0.61579816070798
O          -0.95163285661254    0.19217668088116    1.40806550837222
O           0.75234564855615    1.71740557433392    0.58733915690513
O           1.03458346103139    0.55956423952401    2.71730475191693
H           1.92903441257268    0.93770718755860    2.59705857467129
H           0.11533176917713    1.82215034461149   -0.93290152787789
O          -0.26481570586562    1.80447487723299   -1.84089359694337
H          -0.12207208490232    2.67590777433708   -2.21325540155096
O          -2.43624287391749    0.35941702495445   -0.88036282367998
H          -2.05744387628818    0.38703572688870    0.01493256649627
H          -1.87155219682981    0.94854198057682   -1.40346762136456
O          -1.62013679823847   -2.04372153103463   -1.64546833149833
H          -1.21789817068856   -2.35605771693770   -0.28256009995614
H          -2.12806164502790   -1.21018343952219   -1.48708438967858
O           3.08749910887760    1.93411408793514    1.78519354236955
H           2.37051022585359    1.99821823487851    1.12437202004839
H           3.21821558476673    2.81789037217178    2.13654664571158
O           0.68661066215480   -0.80708198605509   -2.07396607417234
H           0.40883248764569    0.10135754980491   -2.26343815026140
H           1.03337944583103   -0.78071848089711   -1.16543560999219
H          -0.75850655573061   -1.72507396478423   -2.01078754456628
N          -0.81751208215465   -2.34576499425960    0.75807083680080
H           0.15817165091585   -1.96106814904272    0.69323688641089
H          -0.87052843250102   -3.23925436379680    1.23333590064612
H          -1.29581846240086   -1.58217338146576    1.26441468169313
