    26
        -50.45899771  Gyration_radius:  2.47167531225 Dipole_moment: 5.015
 S          -0.15014066621962   -0.15976798620723    1.03783298826105
O           0.69755657228173   -1.19883160097869    0.47274104792542
O          -1.50623003397929   -0.88557938676522    1.35674301481232
O           0.35861491392214    0.45836564993009    2.23141839057056
O          -0.48929614522671    0.84442528962162    0.00531159191089
O           1.94157222251280    1.98310464867405    0.57987912859092
H           1.72598170572446    1.56620925303465    1.42560679177613
H           1.09142523225956    2.02669003000220    0.12435052890074
O          -0.98702730700557   -2.49721904688106   -1.01133836503341
H          -0.26282403303468   -2.19134331981419   -0.41169810131845
H          -1.75757066299549   -2.57533034351488   -0.44264304195328
O           1.47846837869726   -0.21880511539033   -3.09946698692426
H           2.04878575140121   -0.12289798821209   -2.27143536426761
H           1.73994810583717   -1.04761302865995   -3.50546637232668
O           2.77664185198974   -0.14694233006858   -0.87415354798965
H           2.17297567786575   -0.69023040405745   -0.33600394688511
H           2.74865669066630    0.73114576671553   -0.44581678607975
O          -0.86187693576903   -0.24133301723209   -2.18340509181568
H           0.08884831936873   -0.20598680439920   -2.63489941064488
H          -0.99601216675496   -1.20436377076198   -1.85686503616105
H          -0.74720923164096    0.30300924382412   -1.27835881285975
N          -2.32424461566083    1.18668549219903    2.69033874727757
H          -2.82177409022281    1.24196508540009    3.56964850935646
H          -2.62251584158995    1.95438374105920    2.10283070618354
H          -1.32767268321751    1.29223219822983    2.86772606877609
H          -2.01508099921179   -0.20197226573243    1.88712335992235
