    26
        -50.46577282  Gyration_radius:  2.41259522114 Dipole_moment: 4.007
 S           1.15569303650953   -0.09758077292590    0.97138595444862
O           0.62257640985452   -0.06409296833321    2.30923180487614
O           0.86325248146514    1.12432553350052    0.22133988004729
O           0.42140163021851   -1.26597223349582    0.19205094381478
O           2.56118364279440   -0.46794210077101    0.87202877086850
H           2.65551838548954   -1.01852641788697   -0.47720948853672
H          -0.54152716026173   -1.19784263384810    0.44248698365518
O          -2.06095539722580   -0.87929758198284    0.79793537139657
H          -2.13192659592191   -0.87340377381850    1.75690296054310
O          -1.62515497095107    1.20200068492697    2.87477389329170
H          -0.76598715302886    0.75287146897613    2.70621352828116
H          -1.53021255057353    1.62897388968340    3.72655520091256
O           1.02610471776178    0.52300313775277   -2.31771355006585
H           1.02551681074337    0.93871020508470   -1.42381655075776
H           0.09031133077840    0.26068107018429   -2.45157069523153
O          -1.60626295115407   -0.04841218653261   -2.10900670486887
H          -1.84163518124652    0.74065682752954   -1.60250068996551
H          -1.81745646063901   -0.79424878221970   -1.54051990060435
O          -1.71397742367011    1.66890751795474    0.17757124844065
H          -1.91639231856373    1.93752339943142    1.08590817834906
H          -0.73194864839060    1.59632905767943    0.16049408268960
H          -2.09151198325836    0.07858948261739    0.54305031129196
N           2.54644792551956   -1.38096009407575   -1.50339151021457
H           2.05237420303622   -2.26767405934048   -1.46742459765316
H           3.44448422301106   -1.47383186647099   -1.96690514844412
H           1.91008398769594   -0.62278682361481   -1.97787028656697
