    26
        -50.45363468  Gyration_radius:  2.44697344751 Dipole_moment: 4.263
 S           0.55784161250334   -0.16623200911487    1.29176061072369
O           1.81429688693442    0.46078561986405    1.02309258204915
O           0.25380910163547   -1.27101563236298    0.41183868080466
O          -0.57464890407869    0.89312615239095    1.17009521150661
O           0.44221859392246   -0.58955950243560    2.74254013860644
H          -0.57518063367143   -0.70780245352705    2.92805309984360
H          -0.35364154977629    1.45806294553719    0.35714077576009
O           0.22705771894147    2.08212668904306   -0.92162020778279
H           1.11546106705946    2.33034464500901   -0.65385561270538
O          -2.42161653808351   -1.53102626738515    0.53333092832576
H          -1.47496561928478   -1.70680220049697    0.40633982576300
H          -2.63312823571492   -0.85041615891234   -0.12896734647385
O          -2.05386354656635   -0.70831641095330    2.97532740398057
H          -2.32378553329317   -1.09120559108191    2.08966523238795
H          -2.31083709865982    0.21727022479463    2.94791559804888
O          -2.27530694670073    0.38473091718142   -1.47045449759148
H          -2.05758606645312    1.30470900401607   -1.30449554189519
H          -1.55026228145485    0.02628806649734   -1.99556282463474
O           0.51002041701993   -0.24323469272243   -2.05473523463963
H           0.37033994541233   -0.78456629486452   -1.25498509119897
H           0.33225476460237    1.26038118666131   -1.48557621970379
H           1.48881845350135   -0.24354524875666   -2.16211199890944
N           3.15407976168132   -0.12089011384411   -1.53370688614324
H           3.85882050465468    0.55547685590715   -1.80143747434811
H           3.59418025432094   -1.03299849470520   -1.53978634359600
H           2.88562387159330    0.07430877418480   -0.56980478818774
