    26
        -50.47176456  Gyration_radius:  2.45072582059 Dipole_moment: 4.277
 S           0.25207077421950   -0.01976542422553   -1.48356442879396
O           1.27190138631771    0.86067442815850   -0.93950384587355
O          -1.04679061068687    0.60290789603624   -1.57265279160005
O           0.17419854427250   -1.27085349644213   -0.69988174792049
O           0.73531032392447   -0.41469979495531   -2.91290845074110
H           0.12588868035643   -1.13034397601879   -3.17647565898893
H          -1.10868688595313   -0.75944345473188    0.33226874309325
O          -1.78927193202918   -0.43337832619238    0.94924329982418
H          -2.45374050146499   -0.04273759141625    0.37535791799126
O           0.95114224821850   -1.88811307611420    1.78368367034689
H           0.08952150154987   -1.97268341275512    2.20144567539735
H           0.76560987806176   -1.83011403470427    0.82471358038897
O          -0.81637170718979   -2.55947693700374   -2.78439026356950
H          -0.40078117024127   -3.41437276024614   -2.91813038786986
H          -0.60045244563798   -2.27980277930242   -1.87469648888063
O          -0.64255642902389    2.88727187554783   -0.28388965272832
H           0.26770263848173    3.02337832914794   -0.55767140353788
H          -0.93621181273673    2.11439079425737   -0.80917258554322
O          -0.70656700970434    1.75520114064655    2.12835631298463
H          -0.77357864333362    2.34342482160933    1.34016310385189
H          -1.23327757789568    0.96619124804894    1.88492047766489
H           0.70663380234599    1.20541622016784    1.98820154912511
N           1.60786934534636    0.69919423959631    1.65914293906145
H           1.60425565650813    0.78330755824765    0.60529965743926
H           1.50672644953397   -0.32139971304736    1.87944448795754
H           2.44945547683305    1.09582621569352    2.06069629092226
