    26
        -50.47176428  Gyration_radius:  2.45121473453 Dipole_moment: 4.287
 S          -0.10656965995014    0.35673115678743   -1.45784910209231
O          -0.45662859058515   -1.03247975754335   -1.63200299893800
O           1.29296252654872    0.55539684638835   -1.12110232156993
O          -0.97886772400453    0.98822048064717   -0.44504614740807
O          -0.34461650520467    1.12211206006672   -2.79557805178868
H          -1.31561374646909    1.12242662440045   -2.89706364923809
H          -1.21611911844162   -0.43415488613033    0.50095009589665
O          -1.28815446973359   -1.22871609012850    1.06090960368613
H          -1.50014976328625   -1.93089023809348    0.44002445564517
O          -0.55177825563254    1.72277520110136    2.09082668384425
H          -1.08368173119281    1.05887061711063    2.53846718806497
H          -0.78311038354185    1.63929963212783    1.14376869516152
O           1.75488878031262   -2.25544511759862   -0.82191990107999
H           2.38170373395846   -1.60177626991477   -1.14111890697511
H           0.89394289976617   -1.95451975459647   -1.17936199258683
O          -2.92707748407622    1.23849666993784   -2.21248845852794
H          -3.33422890119012    2.10739493543473   -2.18708453466963
H          -2.42743351448740    1.13640488802749   -1.38033997277348
O           1.25574386110051   -1.85113684858266    1.76487977076769
H           1.69329792790783   -0.39393261357623    1.69759854391975
H           0.28407842137872   -1.75202453482001    1.69323203553982
H           1.53069991883598   -2.18607453813905    0.87939435253991
N           1.81299221682700    0.65532405958418    1.44977564012117
H           1.69847399561779    0.70701054290546    0.39995778998740
H           2.70780180203419    1.02834023000409    1.74477103656113
H           1.00744376349804    1.18234671458989    1.86640014590741
