    26
        -50.46044994  Gyration_radius:  2.45537231547 Dipole_moment: 6.759
 S           1.02137536958667    0.88968920554576   -0.77949538321596
O           1.11023530810706    2.14816564658271   -0.09705807167275
O          -0.34236771319542    0.55072352729221   -1.18713991609840
O           1.47301643184872   -0.26303445051943    0.20505721810331
O           1.95881100183380    0.73670888793846   -1.89475950573742
H           1.98295467137173   -0.65945151814531   -2.05982626406615
H           0.70308624872745   -0.61619844151417    0.72885586334054
O          -0.47607182771522   -1.42981530970947    1.46816923569724
H          -0.14833586242484   -1.75145508094673    2.30967622681066
O           0.26304172592791    2.11674240046487    2.40375782704181
H           0.62236693014199    2.12284783808461    1.48883543003250
H           0.10748753836506    3.03758656458326    2.62080188248489
O          -0.54196347624206   -2.02962242110179   -1.24755485177665
H          -0.64596285337820   -1.04979567806427   -1.33311475260396
H          -0.63344135783851   -2.17860723462245   -0.29460912684134
O          -2.55689813541754    1.67680024038611   -0.24216518270714
H          -1.70395308637369    1.38239055567403   -0.62322813035165
H          -3.23745635184482    1.35215133956843   -0.83368974669827
O          -1.91989749143372    0.56895176584812    2.13427587690111
H          -2.30512918232942    0.98043758638741    1.33442942468264
H          -1.12457865759011   -0.68187512139935    1.70701111639549
H          -1.17716263557888    1.16150005616947    2.37876787461972
N           1.92695743848978   -1.77839594387202   -2.06579192911140
H           2.11920602575590   -2.15009102616692   -2.99062035262328
H           0.92562876293286   -2.01389569840921   -1.74397868250427
H           2.59905117827380   -2.12245768004983   -1.38660606010350
