    26
        -50.47064473  Gyration_radius:  2.48573557646 Dipole_moment: 4.194
 S           0.01497307739988    0.64166551711976   -1.06834163169141
O           1.14620797087613   -0.18702182456522   -1.46324187135750
O           0.31082599041221    1.33322660160509    0.18928405395062
O          -1.21276797414659   -0.14221846655339   -0.95111098123308
O          -0.18595242079490    1.70409361123515   -2.16999588086626
H          -1.14348200887163    1.97523217199839   -2.05730572102900
H          -1.07186048123077   -1.22001465088022    0.21046520285752
O          -0.93364624293907   -1.89562251263251    0.92723897659126
H          -1.80604475856733   -2.22469595198539    1.15023542019398
O           0.86684768733714   -0.26621504014528    2.22045812476621
H           0.63992620901326    0.47464238747903    1.61641822852579
H           0.16380514475042   -0.91971485110824    2.06476617506627
O          -2.64215214404931    2.05624530958181   -1.52724983165503
H          -2.52924832281517    2.50416140334968   -0.66250542958136
H          -2.59918515746095    1.10916330135244   -1.32624185423586
O          -1.70304534039505    2.91455214567099    0.83302835640233
H          -1.34158662375811    3.79146209627501    0.97088722320649
H          -0.93345473580450    2.32355900358077    0.67667773794766
O           1.06056085288518   -3.01935955617083   -0.57814554957841
H           0.95527713287952   -2.40494677842363   -1.31535762753202
H           2.25680049676980   -2.11075629425469    0.22756745963515
H           0.29281117369213   -2.84956595243348   -0.00198727597428
N           2.58132827367455   -1.14282178733917    0.47135636182383
H           2.18383787569039   -0.57342689898096   -0.33265638477103
H           3.58708973738282   -1.05953502433657    0.55860396477291
H           2.04213457828348   -0.81208795945429    1.33715275376454
