    26
        -50.47064471  Gyration_radius:  2.48561668525 Dipole_moment: 4.192
 S           0.45233415653361    0.41390632263303   -1.08533624342384
O           0.66215799119543   -0.98591031427456   -0.70601038714014
O           1.32549877415991    1.28110671409893   -0.30565578472986
O          -0.95264673093324    0.78582785427280   -0.93316359321736
O           0.84414939923705    0.57779992387478   -2.56937643171517
H           0.01969396470739    0.28843565540758   -3.05892381151481
H          -1.41846622963668    0.58276953277613    0.57440581957896
O          -1.66160382833255    0.46611819521093    1.53179520399762
H          -2.61969729869132    0.47836906436854    1.56308716758153
O           0.22338571603436   -1.51280530338791    1.84789183608802
H          -0.59570312342689   -0.99797332861734    1.94567092540880
H           0.38011430669392   -1.52714803018027    0.87810577244255
O          -1.45656476671913   -0.21747528292442   -3.37196952883898
H          -1.75794961685670    0.23333444559351   -2.56873934373899
H          -1.40443819370635   -1.16511478351623   -3.12629042057967
O          -0.84536785742777   -2.55233992786993   -2.20385681289920
H          -0.28485924626912   -2.03117544506119   -1.58718661580556
H          -0.26766944225229   -3.20603706502707   -2.60076138049967
O           0.16266720801556    2.40310011042147    2.18445928841560
H           0.42179692745002    2.57528809251993    1.27048144032351
H          -0.62109922055373    1.82749945557173    2.11602760637022
H           1.37238524324169    1.24037872828094    2.48519679481652
N           1.92081183372148    0.44545915629457    2.07412580433144
H           2.85605694831043    0.35617499618269    2.45289626003613
H           1.91105296647298    0.68889671085977    1.04005153498929
H           1.33396012909988   -0.44848546755630    2.15307488962410
