    26
        -50.45514542  Gyration_radius:  2.45846341506 Dipole_moment: 1.643
 S          -0.77190054046803   -0.12853026305408   -1.26919029870215
O          -0.19898983761380   -0.87987736125377   -2.34653608868836
O           0.00041780197792    1.03987183178223   -0.89312073283024
O          -0.91853320078006   -1.03070297669000   -0.02619847733117
O          -2.19231360020276    0.27066282573744   -1.58081605818207
H          -2.43679349058263    1.00540504680066   -0.85738311305137
H           0.00665297769363   -1.38677992976289    0.27040817713846
O           1.40743138051814   -1.80862641073641    0.55121824032422
H           1.68639394930986   -2.31720068575212   -0.22746107264259
O          -2.53643124821040    1.97598638446197    0.18516767453810
H          -2.43195786258372    1.44419694163285    1.05139711156746
H          -1.72418563462844    2.48366018736567    0.09292701286312
O           2.17371612804544   -2.03359615909624   -2.06870906452169
H           2.36448176349650   -2.62234734870567   -2.80024425965860
H           1.30858020665098   -1.62008380479984   -2.27109338336268
O           0.65967929021022    1.46318291924153    1.72928474569511
H           0.40317910190195    1.38382500652178    0.79626013050120
H           1.61388598719939    1.36272708273033    1.74248593121114
O           2.58827004532797    0.34434963852738   -0.45335179174096
H           1.92408595434524   -0.97277018327157    0.46754540510516
H           2.89111853777523   -0.20272520987242   -1.18725110305603
H           1.75489784792124    0.75096201028957   -0.74866052024746
N          -2.01689549457175    0.53221628110061    2.28899273349801
H          -1.97072355013026   -0.41192549545170    1.92482511828408
H          -2.52252193123566    0.52306276228755    3.16459916954569
H          -1.06154458135493    0.83505689994597    2.46490451375394
