    26
        -50.45467086  Gyration_radius:  2.45129597027 Dipole_moment: 2.771
 S           1.25526837364489   -0.38580298797547    0.62665343926718
O           1.33650724792005   -0.50289781786584    2.04822850627665
O           0.80341474539662    0.91236417693357    0.15975477889164
O           0.29068139101243   -1.46262116671536    0.06449101528872
O           2.56576508346711   -0.73568589487167   -0.03347712608931
H           2.48843714319153   -0.34756686598344   -1.02059148365065
H          -0.64786122477772   -1.29372418134779    0.40020175362764
O          -2.03538351963987   -0.96619093207263    1.02013362435766
H          -2.49796769335453   -1.75802755496603    1.30200525021698
O          -0.27406390902456    2.52807521555821    2.05936091901396
H           0.45124824799715    2.96436587900243    2.50932847341647
H           0.11916058467194    2.03959689646987    1.31395918374231
O           2.15497992014567    0.28481909604358   -2.25090420262541
H           1.37204524692880   -0.26287683437786   -2.61770220870821
H           1.76546776367635    1.10648767545090   -1.93386213263671
O          -1.52871616370464    0.68155502403752   -1.28142117792401
H          -2.09167102231762    0.26600391493581   -0.61988916713537
H          -0.72864934251119    0.94696838581465   -0.80284136351148
O          -1.05881396199613    0.17068337744639    3.10416603251079
H          -0.98954939597324    1.12287948573539    2.88953870985661
H          -1.76186952361281   -0.48617710962198    1.86825203369799
H          -0.15135370222080   -0.16382833631063    2.99452285148704
N           0.03166609361792   -1.04720444634830   -2.94584443398314
H           0.04549453010326   -1.91312844336342   -2.42202830196571
H          -0.22771424096282   -1.24836007182516   -3.90239759195749
H          -0.68652267173316   -0.44970647377272   -2.52963736151683
