    26
        -50.46847044  Gyration_radius:  2.51380488377 Dipole_moment: 6.121
 S           0.12739629232995    0.16718463627039    0.82007909638757
O           0.75647840680265    0.11545988061616   -0.51829932970004
O           0.67595200014131   -0.82257116187982    1.71062802062913
O          -1.38077856551999   -0.13183549175237    0.58665036405407
O           0.16698789098763    1.52733980709408    1.33878749594374
H           0.07312038815229    2.53442814693545    0.26203338676854
H          -1.48494283411774   -1.14045756252182    0.40150514883513
O          -1.50069724151644   -2.61509707720722    0.17089039311491
H          -1.40621276541407   -2.93146801123666    1.09224939831437
O           2.29968922010058    2.01582649563229   -1.55468394885626
H           1.88883574235903    1.23534960416852   -1.12325375309167
H           2.51614365253700    1.74009937395427   -2.44724435947689
O          -0.73827036040386   -2.82437355970270    2.74178401474532
H          -0.13115821366942   -2.10584096517937    2.46617781554387
H          -1.22041742750485   -2.48888310029008    3.49865345020987
O          -1.25479137091124    1.14725608313193   -1.90554762144289
H          -0.50084550184662    0.63219909873042   -1.54502360473160
H          -2.02666087309630    0.78657309230404   -1.46016959960755
O           1.08276927228346   -2.53831195698142   -0.50126168350846
H           1.46272911875822   -2.67825789770437    0.37094363901353
H          -0.61810408246529   -2.76993123058462   -0.23734787303189
H           1.06846858737149   -1.57026365423081   -0.61370165683204
N           0.03219785753416    3.09813144588681   -0.66727908766328
H          -0.22122017342090    4.06904336627238   -0.52525246289473
H          -0.64607221086136    2.56715702662736   -1.26853009740629
H           0.97940318111064    2.98124362186316   -1.09278717545957
