    26
        -50.45875109  Gyration_radius:  2.52130242573 Dipole_moment: 10.919
 S           1.03231956804546    0.28566423441792   -0.28888934151504
O           0.92826592988468   -0.56226790738587    0.89794016147791
O           0.78350440229459    1.67176576604591   -0.01333102126170
O          -0.06639027564835   -0.24592816674026   -1.29081552694519
O           2.28077321065136    0.03068875533852   -1.01407063130724
H           2.06776544688714   -1.19895120790373   -1.61557888311811
H          -0.95917066184851   -0.02938264470507   -0.89423797410536
O          -2.32828813037716    0.24153696867822   -0.14524779321639
H          -2.94617322287382   -0.49087640970144   -0.16896548531035
O          -0.56335399649689    2.92467839271447    2.08685115667147
H          -1.17310329001846    3.26332967961278    1.41081207526683
H           0.21992695049564    2.67098353729013    1.57906429954894
O           0.99168474246811   -3.08472428298966    0.35838900907993
H           0.89426251226329   -2.13484674814520    0.64230036648685
H           1.54908445989989   -3.49527448550763    1.02202314732648
O          -1.61886637274292    2.99025867037248   -0.49573603183623
H          -0.70496591899806    2.67032381305834   -0.53480898663357
H          -2.16402518886858    2.19599205798387   -0.51587941268009
O          -1.26152326477359    0.34740376730936    2.17554333696626
H          -1.08476076292245    1.30481463307630    2.33554629928025
H          -2.00168910015270    0.30359003308025    0.81579452722964
H          -0.40506145027211   -0.02520457126109    1.89846352570570
N           1.72999247047010   -2.20261111069428   -2.00577969720581
H           1.47530379264500   -2.74374213600090   -1.13128272987514
H           2.43833766259995   -2.66692087877965   -2.56452384520492
H           0.88615050739570   -2.02029977916598   -2.54358055482414
