    26
        -50.46258517  Gyration_radius:  2.40443894719 Dipole_moment: 3.535
 S           0.65874137868871   -1.63357787538015   -0.54638837385172
O           1.22562745987306   -1.37982041541212    0.77474974798670
O           0.83974305012127   -0.51125029658541   -1.43707289426641
O          -0.71512702494918   -2.09748703186873   -0.44641272999196
O           1.47909144614229   -2.83209445869167   -1.16656266275480
H           1.13918967573883   -3.57115570214761   -0.67451728701416
H          -1.16884792448708   -1.49004691379659    1.05339070637622
O          -1.37207853848209   -1.06502934735058    1.91181914048246
H          -0.67730552685976   -1.35876721852067    2.50507415868066
O           1.61066398841605    1.05754468078874    1.37006674203408
H           1.87079090513900    1.51215554919994    0.43275149884881
H           1.55733169441360    0.06142885252735    1.17814499973858
O          -2.98586708624125   -0.64494987439922   -0.88449035161695
H          -2.25322577345064   -1.28460097807145   -0.88815225051847
H          -3.35327142572988   -0.67869593362448    0.00201903868973
O          -1.12948551716574    1.31124737745099   -1.10270658788991
H          -0.42809839500925    0.67833631896267   -1.34043901406872
H          -1.95456604820551    0.79126522867167   -1.16953722729735
O          -0.82296323266311    1.51915549381970    1.48866430396592
H           0.57773844714542    1.33448504492306    1.51765600616973
H          -1.01293250375257    1.58704191279744    0.51294828715532
H          -1.17500182535521    0.63968289124408    1.75441168680196
N           2.03432012360500    1.97931232907692   -0.95046481997505
H           2.93303713747970    2.30792391544251   -1.27687590001940
H           1.32431671540522    2.66044099759990   -1.19136086116357
H           1.79817881017754    1.10745544334405   -1.42671537649239
