    26
        -50.44964812  Gyration_radius:  2.66884614412 Dipole_moment: 4.488
 S           0.26733066516645   -0.38347166297637    1.38338152349772
O           0.95487349229011    0.27200335699521    0.29545197404427
O           0.31657165959181   -1.80936086390763    1.35932090672633
O          -1.20416900038790    0.10327778911918    1.39145449527056
O           0.79090891043619    0.13462015873740    2.71754629703445
H           0.70453621463580    1.15172047802523    2.73480124892779
H          -1.68001185861278   -0.27657256351525    0.58827966966340
O          -2.33087098737229   -0.95450928091448   -0.65262037593800
H          -3.25678530612799   -1.13644735742213   -0.48104426021533
O          -0.13924825549660    0.01329999225037   -2.16378409961816
H           0.36880038444455    0.14146190513509   -1.34304036075646
H          -1.05023766985470   -0.12839111784881   -1.87761816188607
O           0.51018687854588   -2.53049246459734   -2.75320319127492
H           0.38974787576266   -1.56297870408962   -2.62226778905351
H           0.22129403499323   -2.72114490962892   -3.64664146133574
O           0.71149325709472    2.67410553413666    2.72909221056361
H           0.94156572703697    2.92706804870447    1.78328468046415
H           1.43816541438199    2.97171279310750    3.28107306554930
O          -1.00272066155103   -3.13119267768028   -0.60761129538086
H          -0.40394893251162   -3.08015676752527   -1.38455878109489
H          -0.44977322882786   -2.90509798335738    0.16000910306419
H          -1.86143150995402   -1.86266714134957   -0.67490439096379
N           1.39069786305511    3.08287146262482    0.20993075917267
H           2.31024886945861    3.40646313851769   -0.06280046061693
H           0.71401967786809    3.52541237613765   -0.39888209715314
H           1.34875649552498    2.07846647179635    0.03535079131054
