    26
        -50.45154326  Gyration_radius:  2.59998970985 Dipole_moment: 6.022
 S          -0.79123319979366   -0.45038477704379   -0.26074391785373
O          -0.68522261767372   -0.22051848888025   -1.68315297857447
O          -1.46243291241509    0.68254951653330    0.41220923142774
O           0.52186556907015   -0.68695126301824    0.34558730222576
O          -1.66339253221471   -1.69629091688626   -0.04160387047689
H          -1.80862048105469   -1.78688667621110    0.94630763663321
H           1.39491259785709    0.60588953634447    0.12027635489111
O           1.84552086018019    1.48487212071284   -0.03003037480795
H           2.35731158513026    1.66630800078492    0.76015229807308
O          -0.72993667425959    2.20347810194785   -2.91129769084505
H           0.19039136791536    1.95573273086302   -3.15145590707104
H          -1.15099849342379    1.34176636122904   -2.75919019284664
O          -1.90250903960332   -2.14712863908342    2.48282516187683
H          -0.93015201671028   -2.26450039638830    2.67177260081685
H          -2.31084046937867   -3.01108772305622    2.57056323227808
O           1.57619035751302    0.85986979704174   -2.80098847366589
H           2.05333798951829    1.11921636263229   -2.00514747134035
H           0.91628153391412    0.20996881483849   -2.50477955948147
O          -0.41467439835259    2.70174944645099   -0.46092327554002
H           0.53614858946748    2.42235531414747   -0.31335367626136
H          -0.58599578555245    2.62512998768847   -1.49440044961522
H          -0.97812307760641    1.83475974846599   -0.02210426080093
N           0.74408319671842   -2.40001778273227    2.60940108681710
H           1.27807764619112   -1.96483889797813    3.35085051975576
H           0.81354773250555   -1.80225384535142    1.78313924944013
H           1.18646268204857   -3.28278641305194    2.38608741494722
