    26
        -50.44964808  Gyration_radius:  2.66872831487 Dipole_moment: 4.489
 S           0.89006068617804   -1.11006735938526   -0.33013314686346
O          -0.45397104249923   -0.91734829183342    0.16214868225123
O           1.91191606506122   -1.06136110255713    0.66457828379657
O           1.16061744752052   -0.05259676876255   -1.43061312874449
O           0.97777542588692   -2.41906337936485   -1.10551258984064
H           0.27109910120432   -2.41544372522974   -1.84229970157187
H           1.22607669338913    0.85749927347888   -1.00244009696497
O           1.35894965342125    2.20559089491222   -0.23578927878322
H           1.97729247151528    2.78243537903689   -0.68835139041208
O           0.22257094921399    1.59751565761598    3.41213884570809
H          -0.37411794286735    1.55167519465481    2.63135592335031
H           0.02122866588280    2.42058111668246    3.85940405499022
O          -0.86129513855799   -2.48897423553529   -2.85721815361724
H          -1.63868911485277   -2.03498025329847   -2.40891847883323
H          -1.10390155545842   -3.41100795503049   -2.96830546148092
O          -1.07702827650416    1.55725122983616    1.05638312125193
H          -0.96075138377893    0.62380740247376    0.80472309329465
H          -0.43551436107076    2.04425634287799    0.52428200229016
O           2.42815075048675    1.30011104554120    1.89524006284888
H           1.73108115515699    1.37825678434458    2.58282142212461
H           2.42501034791859    0.36449925854825    1.62925910523341
H           1.81972452583199    1.91793232749522    0.63055357931702
N          -2.76433186785211   -1.31600223882753   -1.45098287031745
H          -2.09401294048271   -1.11938197259311   -0.70725413632809
H          -3.53741585571160   -1.82712948568525   -1.04380620775961
H          -3.12052448903889   -0.42805512938412   -1.78126352491520
