    26
        -50.46185075  Gyration_radius:  2.40112539916 Dipole_moment: 4.301
 S          -0.36403515074371    0.53443719330444    1.70223017492339
O          -1.43257575276665    1.19499706174868    0.99438097473942
O           0.94476981002204    1.10120845965219    1.40494942076215
O          -0.35709409949968   -0.91266026617182    1.50303779698147
O          -0.61960525872903    0.76016703292038    3.24240966040795
H           0.08432740378261    0.25158000617379    3.62933388046449
H           0.46117188740021   -1.33695754036075    0.10996556149603
O           0.87711726199087   -1.46360809219424   -0.77186306613380
H           1.77629323930349   -1.04432352806701   -0.68550547497675
O          -2.12641058857934   -2.37231011958811    0.10500249847465
H          -1.53574173613082   -2.94951078998574   -0.38438285975945
H          -1.56851978384394   -1.91956062658915    0.76644864478299
O          -2.59644910421055   -0.01995959289171   -1.03673542299513
H          -2.35681061858361    0.50655193403249   -0.24216270652362
H          -2.63601847310646   -0.94972640711801   -0.71236339740723
O           0.31601853953943    2.27893336388861   -0.84774928943573
H           0.64384203854635    1.90016723845500    0.00136662680640
H          -0.51674426265827    2.69879294429137   -0.61170271617521
O          -0.38355671826589    0.18801999327988   -2.15356943910171
H          -0.05208268231428    1.06652402418995   -1.75147924107531
H           0.16860226178889   -0.57178440308542   -1.65137710669415
H          -1.38894066477568    0.08690641773656   -1.78813935098229
N           3.02225942898407    0.03485065320603   -0.31132864435082
H           3.23825265185297    0.72761292040767   -1.01723184143781
H           3.89583344030641   -0.29676213491728    0.07664755776951
H           2.50609694072146    0.50641425766610    0.42981774944150
