    26
        -50.47441268  Gyration_radius:  2.41112990358 Dipole_moment: 2.738
 S           0.31718401947347    1.67685904373559   -0.10923792259964
O           1.31670759016460    1.53026213793722   -1.12995013820337
O           0.65325508545184    0.89978083545502    1.09656168400051
O          -1.02400512190766    1.28405698830561   -0.56373995340149
O           0.26899554448578    3.17292136155317    0.30914171758509
H          -0.48604269209984    3.22307501816699    0.92611170328852
H          -0.85820797900857   -0.12065755415930   -1.40239781343749
O          -0.77829613239112   -0.99388825761222   -1.85673149324824
H          -1.36021061195185   -0.94607721752642   -2.61719029114737
O          -1.54326725235592   -0.49769970703645    1.59814332794458
H          -0.71393948077636    0.02328282110510    1.53193544504849
H          -2.08067581334340   -0.20268552102176    0.85681334875038
O           1.98530317344141   -0.83665038411025   -2.09843756597612
H           1.92612515975476    0.12650436155965   -1.93199501366143
H           1.06744862899739   -1.09289798059689   -2.28620872385345
O          -1.96688829928618    2.54073006327917    1.57984359177241
H          -1.92454765713809    1.87814753828334    2.27617859677052
H          -1.93838817435557    2.05618427057475    0.73538496336328
O          -0.43704927762570   -2.62721100875242    0.37798926072730
H          -0.93876441898530   -2.04245827867284    0.98581918274882
H          -0.66038983876627   -2.30806985051957   -0.51129364184778
H           1.03199417767878   -2.02548149544658    0.52468527125509
N           1.86557518893815   -1.36305056530684    0.46653702584691
H           2.09599560588467   -1.24226270732042   -0.56925664768177
H           2.65910610744213   -1.68666428138113    1.00734378449413
H           1.52298244829598   -0.42604964048892    0.80395030145404
