    26
        -50.46185087  Gyration_radius:  2.40093487402 Dipole_moment: 4.291
 S           0.74120809268854    1.22686360880276   -1.12405725220932
O           1.85445158348445    0.73503296677275   -0.32327225930122
O          -0.15426212492011    2.07345942492716   -0.37524294624644
O           0.05702807219342    0.12180165777235   -1.79080983692622
O           1.36188920312182    2.11099119049280   -2.27358069657484
H           1.88513087700306    1.47202322225647   -2.74457831586298
H          -0.13775080045084   -1.18605668158129   -0.77012449349811
O          -0.28292494172112   -1.85155800395246   -0.06112069407132
H           0.63064616269477   -2.05976653758877    0.27624654971993
O           0.78496716619447    1.11123698849059    2.03727892761477
H           1.28496844371937    0.96153701173070    1.20090298565810
H           0.42129078669194    1.99630987211807    1.93846456335734
O          -2.58330776766365   -0.36825810775781   -1.83138121310068
H          -1.64922869883092   -0.13732193971915   -1.99860229238962
H          -2.59283762045236   -1.31325153116390   -1.66261680710653
O          -2.52118381147225    1.15801921891239    0.34198373387363
H          -2.78172324634444    0.64287020870832   -0.45679348125199
H          -1.74202330788144    1.68216181589801    0.05173271474812
O          -1.23914008799061   -0.43559847172087    1.75740064513280
H          -1.89151744441743    0.23109526302373    1.22355022068895
H          -0.88433619576499   -1.11964053601549    1.02225694290365
H          -0.42909999669738    0.13759513079306    1.99893180546310
N           2.21996875363537   -1.89894170215955    0.82917705876965
H           2.33350935633016   -1.79245765662473    1.82949638568261
H           2.36413308803796   -0.98263180593757    0.40765391912859
H           2.95014445881034   -2.51551460648312    0.49710381578378
