    26
        -50.46185093  Gyration_radius:  2.40104727376 Dipole_moment: 4.295
 S           1.31913709894756    1.16947877232347    0.45624832137133
O           1.83094433137221    0.68112161158637   -0.80021663386376
O           1.33984011136825    0.15866135880253    1.50519704906991
O          -0.01000383299710    1.76377736337374    0.33811345410609
O           2.27594355895289    2.33259309549776    0.92564329065105
H           1.84514616411498    2.62402514491288    1.72147983935295
H          -1.21136333957456    0.60683177036672    0.43097110753297
O          -1.82418855180149   -0.16142951410466    0.40141726454492
H          -1.65157807117195   -0.65101735655327    1.25135347395549
O           1.47994716143397   -1.95086138325046   -0.04051275292364
H           2.15769136432515   -1.67902005294915   -0.66677398101047
H           1.45974868563956   -1.22272898494103    0.62378033548692
O          -1.43837513087897    2.11220649209144   -1.90886716580156
H          -0.89342636748859    2.17452738115549   -1.10065551826354
H          -2.30490512874786    1.81903734364880   -1.61783222020765
O           0.16652668307772    0.18527724404324   -2.78509667485347
H           0.91685960910113    0.43273124117529   -2.20054907998757
H          -0.46948344557968    0.93297779359661   -2.69715103397854
O          -0.72168071437234   -1.60738920865298   -1.30705622872570
H          -1.28271943256106   -1.03368689147531   -0.60653778630233
H          -0.38836459140974   -0.89821882467720   -2.04236198511825
H           0.12732739376064   -1.87791639359223   -0.80813812901005
N          -0.87098351401246   -1.39632081096327    2.55223450461221
H          -0.00366222065556   -0.87324805633814    2.44208491283547
H          -0.64938316435918   -2.37694674472771    2.43301415605402
H          -1.19899465647784   -1.26446241033696    3.50021148046389
