    26
        -50.46048057  Gyration_radius:  2.52115635534 Dipole_moment: 3.412
 S           0.02484188257803   -0.20008507811861    1.58663406782539
O           1.41951017499191   -0.28135314177892    1.20388058627375
O          -0.71305567299924   -1.38772979921599    1.14998098422863
O          -0.62862520054919    1.01463621855359    1.10483281589163
O          -0.01216136822223   -0.16409621395732    3.14874955671795
H          -0.89641795186595    0.18854810185293    3.37948482341180
H          -1.16928857107628    0.51583604838700   -0.35114692569476
O          -1.49570175486674    0.18445558948140   -1.22065345264413
H          -2.19847942568576   -0.42997863290451   -1.00015363784521
O          -2.28760599838379    1.19699585531977    3.13032347087553
H          -2.24598276936684    2.05892556483150    3.55069749668990
H          -1.87066287783622    1.29824519142405    2.25041890859454
O          -0.01612888873959    2.44359695380845   -2.17395086767570
H           0.03761243620269    2.31709189317674   -3.12339415915077
H          -0.70939880915866    1.85163709492238   -1.85492100379206
O           2.04643392511852    0.89054242267317   -1.18406874982677
H           1.45477632792338    1.64343065149347   -1.36005593687888
H           1.89645366198541    0.63071080620865   -0.25841463995883
O           0.67589784290424   -0.99308207371939   -2.37436600307485
H          -0.19503577152834   -0.62549048457509   -2.12409768934137
H           1.31555682252995   -0.28070175292520   -2.09960537157090
H           0.96974291943344   -1.96181302415016   -1.26230737539247
N           1.13303033894365   -2.42692128035360   -0.28638239520632
H           0.25405856139046   -2.22431330085622    0.28795853745571
H           1.82765555021172   -1.85078809216540    0.20919111232255
H           1.38297462606486   -3.40829949741292   -0.32863415223497
