    26
        -50.46485777  Gyration_radius:  2.56489633944 Dipole_moment: 4.104
 S           0.65119489553444    0.42138084152093   -0.50639360126678
O           0.28468238079232    0.47980966706479   -2.01163770508510
O           1.63029122626887    1.47051942103001   -0.25077008866873
O          -0.57333584605299    0.64461207584116    0.26825691823235
O           1.20065992210775   -0.90166510235184   -0.22833240083061
O           0.62673675801499   -2.38442274795319   -2.35028804581906
H           0.92767120830116   -1.96559471790173   -1.51736814838285
H           0.73322889780098   -1.70206240486313   -3.01830214523771
O          -0.80921555809991    2.60126102051738    2.01187527402676
H          -1.00056183239769    3.39842695709530    1.51524003973971
H          -0.84341586971158    1.86293362208086    1.35769872262438
O          -1.98426774777551   -2.65320798487908   -1.84494089032202
H          -1.00960069000723   -2.66996255922299   -1.99332613517377
H          -2.37170829556154   -3.17950887051615   -2.54579117440482
O          -2.19457102653556    0.00430904564196   -1.75502162995544
H          -2.02541440509466    0.22325406266769   -0.82531246715202
H          -0.71819246592165    0.32524811395619   -2.05671979475233
H          -2.25492519079424   -0.97884045513917   -1.79198867116058
O           0.83034398521396   -0.91658578792177    2.35667427843279
H           1.04145330027872   -1.06397011756618    1.40366375699023
H           1.39268395841013    0.58252586195394    2.52213318039979
H          -0.12979177416285   -0.90835703076796    2.39423720539072
N           1.62679268323536    1.59656391733061    2.31346192130853
H           0.75842967580319    2.16148726982231    2.45983052229487
H           1.78886826023856    1.61635599172684    1.25013212932759
H           2.42196353008487    1.93548991080451    2.84298897943552
