    26
        -50.46582121  Gyration_radius:  2.52377041006 Dipole_moment: 1.966
 S          -2.06596466976301   -0.19541800570997    0.62427443859174
O          -1.31170922655163    0.15137094645223    1.81901647035429
O          -1.33248853910659   -1.14260432407508   -0.20605286361022
O          -2.56896743434230    0.94503460076018   -0.10801585199814
O          -3.35927611180480   -0.96997360379702    1.13294735432042
H          -4.06928949204638   -0.47150815580531    0.74208418099950
H          -1.42763302721982    1.81489111790931   -0.89188033245696
O          -0.66668537127562    2.27520437131512   -1.32017426519091
H          -1.00597202440343    3.10905957246782   -1.64903578259084
O           0.06499372042629   -0.19981430911967   -2.33001555512860
H          -0.50268826984603   -0.64562372887464   -1.67790350288946
H          -0.07707274500081    0.74653038208732   -2.17507398892905
O           2.55687646109755   -0.82728893555198   -1.67582688581806
H           1.62648275954179   -0.64821705301264   -1.96086567539152
H           3.11950413414878   -0.38282805488561   -2.31052853239605
O           2.55122248119785   -0.30199810507207    0.92508823149356
H           2.67893150715995   -0.49681569083429   -0.03259179123960
H           1.46082414245168   -1.18374849423237    1.31579934193808
O           0.78417058554546    1.69090998746220    0.96470752180832
H           0.01751783044073    1.27447363792760    1.39182939136196
H           2.06838817028005    0.55659768418605    0.95998113780210
H           0.45680078086544    2.02245849878440    0.11410884567417
N           0.50599037074910   -1.70207609226292    1.55296221200152
H          -0.09385755618620   -1.02980279228278    2.07421145199773
H           0.63872946231061   -2.57864997852242    2.04409448196017
H          -0.04882794867283   -1.81016347531347    0.67685995733562
