    26
        -50.46291877  Gyration_radius:  2.52931288587 Dipole_moment: 7.114
 S          -1.03858384322435    0.97951211022497    0.86222990721108
O          -0.04002630563496    1.09129623303346    1.89452501050983
O          -1.26924806748351   -0.40302209450200    0.45441198014258
O          -0.70681638852612    1.81064296284667   -0.30608165227927
O          -2.40809428277989    1.49239223034522    1.41051870187288
H          -2.25500461666152    2.45086706119883    1.50303483059935
H           0.59413927371971    1.23210181416613   -1.01833046284930
O           1.36870159358124    0.79794128869924   -1.46607011014171
H           1.85871766290439    1.50669041738313   -1.88638001239071
O           0.42820055416428   -2.17597464464314    1.41293594681922
H          -0.33501716115966   -1.57532795953442    1.25036493605014
H           0.57752490901978   -2.78708877222696    0.13430375276527
O          -1.57883878404164    3.96285370225354    0.91084754084322
H          -2.15130777353945    4.45445816304449    0.31748233711907
H          -1.07928648187859    3.33094081615484    0.35489252182581
O          -0.55342891550859   -1.07055173398893   -1.98562555897985
H           0.14767476722534   -0.40595514980751   -2.09856453966615
H          -1.00405199135865   -0.79241735655226   -1.15259550998931
O           2.11490439859380   -0.19784008134392    1.05355359476500
H           1.46551712321740    0.37563789612498    1.51252046850836
H           1.19573541132704   -1.54746257860688    1.44813738602398
H           2.05682225057214    0.07098749374029    0.12391254598693
N           0.65424001415975   -3.11215536178722   -0.94163986788138
H           0.14876787781350   -2.31517414089080   -1.48060623295921
H           0.18197204603593   -3.99765749947852   -1.08533252285850
H           1.62678673947466   -3.17569482587851   -1.22244500105717
