    26
        -50.46291873  Gyration_radius:  2.52937585055 Dipole_moment: 7.112
 S          -0.57962237614548    1.11551943443514    1.09594382027180
O           0.81822096481173    0.79318528795714    0.82545979323419
O          -1.26915896898473    0.05129440997132    1.77950897717132
O          -1.26806870694325    1.49759144942011   -0.14737496103275
O          -0.55211997118581    2.38309823331972    2.00801531525998
H          -1.48695722147180    2.66003613623193    2.01612601900163
H          -1.18132927456913    0.29971448086095   -1.19254067374869
O          -1.04580017044388   -0.44783417016557   -1.83416461068466
H          -1.81556801933844   -0.44476010185903   -2.40564319637907
O          -3.02249924568803    2.90958114693132    1.19488981350550
H          -3.12249768746412    3.77038332328517    0.78204942295550
H          -2.57685712516902    2.33643167309336    0.53865520373324
O           1.51508184725606    0.48933795126830   -1.69137836168885
H           0.64597191164420    0.21581412482666   -2.03165250707223
H           1.31903498878675    0.79255367835346   -0.77271503241673
O           1.52895851991186   -1.69952325186222    1.29940677285673
H           2.22208193133878   -1.78281348894844    0.05711631643137
H           1.34038658774193   -0.73427313012384    1.34935784941550
O          -0.88581777426644   -2.16600934291876    0.38342311154725
H          -0.94794965165570   -1.76270974873705   -0.49600423837909
H           0.63979203194863   -2.08354513786861    1.08216580320461
H          -1.20030230413838   -1.46605788027451    0.99362997639723
N           2.65710265462386   -1.72591334097631   -0.98055191840741
H           3.66939105127411   -1.68365611672610   -0.94520340864280
H           2.24721477418331   -0.79927801990321   -1.37338594353074
H           2.35131120388188   -2.51816762954712   -1.53513336301980
