    26
        -50.46291874  Gyration_radius:  2.52934433245 Dipole_moment: 7.112
 S           1.41742581764212    0.82632000390415    0.29946644543084
O           1.91964084598634   -0.33248687570359    0.99246887317829
O           0.07424251195110    1.19886224960362    0.73315337464543
O           1.45318956681184    0.64333428757142   -1.16035885263493
O           2.32309009558289    2.05631201140275    0.62551740976133
H           3.15498291044782    1.83541783764283    0.16744511516332
H           0.41538553746026   -0.48873469413557   -1.57989981348663
O          -0.29015531262751   -1.15382334117259   -1.80075129578175
H           0.01664719562918   -1.60931341284638   -2.58659189813964
O          -1.13825265707479   -0.52855399755104    2.31079166831174
H          -0.61633220344299    0.21537389897384    1.93134982526297
H          -2.34528761398185   -0.43205643460701    1.55939226688852
O           4.01876405557718    1.18020437403069   -1.21785594708572
H           4.19693156749820    1.81333656734912   -1.91710039458809
H           3.12758986339523    0.81570916155500   -1.39303404129620
O          -1.86983255143968    0.93104249264805   -1.01662556975188
H          -1.13600184971613    1.22277044375190   -0.42443126066312
H          -1.46731565092787    0.22130570645288   -1.54594926006568
O           0.10185142026366   -2.24412646727746    0.75928376367857
H          -0.69689601329137   -1.32612726332107    1.91792175811446
H          -0.15523234417988   -2.05006145435657   -0.15512105211102
H           0.91315688435641   -1.71226271657311    0.90087568614821
N          -3.19565721403740   -0.31340443535581    0.83006361193553
H          -3.52913787559602   -1.22182269451397    0.52619306192483
H          -2.74285120815299    0.22734038200705    0.00323798999584
H          -3.94994575815093    0.22544435049415    1.24055853518523
