    26
        -50.46679028  Gyration_radius:  2.45333810469 Dipole_moment: 3.990
 S           0.57291482715105    0.90462711048181   -0.95335416610512
O           1.74716353561749    0.13074522080734   -0.55357348014517
O           0.11507483530427    1.75524046843503    0.12054590847328
O          -0.47712562394536    0.01041758132464   -1.45832789045107
O           0.98866604196145    1.83549367499093   -2.13292092500452
H           1.08141818214122    1.23703012510767   -2.90183447301766
H          -0.15666667445143   -1.34155885165098   -0.46097594469534
O           0.06283047536874   -2.07472109251977    0.14499846818841
H           0.98389486634619   -2.27242137923156   -0.03826633086424
O          -1.82140456789596    0.81579199471814    1.79539131998062
H          -1.22500034344091    1.31272484918563    1.20883457063534
H          -2.41794187348007    0.33671610865623    1.18882498758554
O          -2.82103773261687   -0.69906366494464   -0.23315174278127
H          -2.10394164931398   -0.36005824917520   -0.79449017036531
H          -2.59556358947736   -1.61421680296385   -0.04832083972391
O           0.63057743374700   -0.14779400663457   -3.84710420407434
H           0.00349592017183    0.00823788823694   -4.55711398469993
H           0.10546227529757   -0.35187775524929   -3.04954668702437
O          -0.10748411797556   -0.97967691495488    2.61193850737072
H          -0.10712293547755   -1.54885005223574    1.81372026297809
H           1.00122098404081   -0.05861306327380    2.36351299142097
H          -0.86568986506463   -0.34828498912177    2.46750718961388
N           1.71932047070526    0.69002623202017    1.96673266453151
H           1.92519424798947    0.39383856437149    0.96371771697032
H           2.55382371906092    0.79744723378835    2.53276723975122
H           1.20792115818039    1.56879977988071    1.85048901151348
