    26
        -50.46812615  Gyration_radius:  2.51055988889 Dipole_moment: 7.103
 S           0.19581654739134   -0.27509542312871   -1.14154020446903
O           1.49423659829720   -0.73298000430584   -0.67381323121326
O          -0.88806050046309   -1.13732785202153   -0.68215447528062
O          -0.04374950655207    1.11226802580617   -0.73135480098666
O           0.22777136997996   -0.31013734460436   -2.69008437610472
O          -2.09685802288557    2.18982027228379   -2.00479563789293
H          -1.73044021048206    2.78138844312279   -2.66427285048354
H          -1.33366473026918    1.86284977150579   -1.47943843728704
O           2.84102293999764    0.40806611858629    1.23745986480405
H           3.74415485566771    0.11351492145345    1.10927941119453
H           2.34515682759343    0.10337140986620    0.43504749459318
O           0.43345070956845   -2.54474306171989    1.04123103011288
H           1.22576415390193   -2.44443801437780    0.49774289242512
H          -0.25730783337836   -2.14885506895119    0.45593789368652
O          -0.89269133502675    1.25875797659241    1.72259664345550
H          -0.63871339549586    1.16981902209383    0.76840827349646
H          -0.83349173231153    2.19667367649719    1.91453417033644
O          -2.33479234646560   -0.37193916599650   -2.80847436668453
H          -0.74207511828373   -0.35305423173378   -2.93507550761630
H          -2.23718925539892   -0.82411142433196   -1.95543492988058
H          -2.51414188155519    0.56647561679736   -2.59191783854354
N           0.80992701424388   -0.52822482467797    2.67250435313565
H           0.06869185086426    0.18207928519164    2.41690047018678
H           0.83509771914365   -0.70431096628950    3.67041489285983
H           0.60440325193380   -1.42011894152273    2.10997935936919
H           1.71768204998860   -0.14974819613872    2.30631991678435
