    26
        -50.46044990  Gyration_radius:  2.45570432209 Dipole_moment: 6.769
 S           0.99606716756086    0.69787774565751   -0.98193875486851
O           1.13608635908793    2.06161408289810   -0.55990610590685
O          -0.39085863420383    0.31897071304960   -1.25402411253097
O           1.47900201657410   -0.25464216649312    0.18492287155299
O           1.87503332994068    0.31134286371183   -2.08817786919497
H           1.86963224791318   -1.09098519820089   -1.98155803259327
H           0.73152211476960   -0.48074704674088    0.80282141630818
O          -0.42176800389356   -1.10708690857156    1.73948203423701
H          -0.05861662639432   -1.26763765452619    2.61201900605388
O           0.40717149527196    2.54087280153427    1.93259667601339
H           0.72374851451488    2.35912565038446    1.01991170400185
H           0.26977485094286    3.48905850703076    1.96849040606687
O          -0.63029824624848   -2.21842846716306   -0.80193004355856
H          -0.67565905645756   -2.17803891505553    0.16505372874901
H          -0.72430004900298   -1.27142044344332   -1.07138943627843
O          -2.54266747867990    1.65368275764933   -0.44717683987389
H          -1.71282008042620    1.27312911504630   -0.80227393295606
H          -3.25542074271856    1.22900340434284   -0.92686712518558
O          -1.80355232283128    1.01552273019647    2.06772232264024
H          -1.04711969232904   -0.31194044691016    1.85707038972081
H          -1.04255125275738    1.62801670359629    2.15903793008379
H          -2.22167723114003    1.27259971959482    1.22108163601667
N           1.79662337037240   -2.18855138492921   -1.76967951333460
H           1.93467888792163   -2.73468471031961   -2.61415089032085
H           0.80987708523124   -2.33336237769407   -1.36061014532690
H           2.49809198699127   -2.41329110460613   -1.07052733951904
