    26
        -50.46044996  Gyration_radius:  2.45547004448 Dipole_moment: 6.764
 S           0.29233751235555    0.01178110732796   -1.53607617624136
O           0.29112674572557    1.15934166788590   -0.62835602655969
O          -0.95646599645035   -0.17000874349231   -2.21796165043043
O           0.57129001950450   -1.25250953745169   -0.62712495522896
O           1.46528144133726    0.03431590296343   -2.41324817833236
H           2.50595380292328   -0.23800052070920   -1.50733272428809
H           0.18315832443529   -1.13889448421891    0.28288939994769
O          -0.19028504129525   -0.99443137476227    1.84485887197475
H          -0.41341861640780   -1.86035064619396    2.19040416397461
O           1.96558316238638    0.67037783415882    1.28443541924999
H           1.33601310207001    1.05486152817148    0.62564645400199
H           1.40500057718010    0.07382236617321    1.80274756654213
O          -2.88906168333574   -1.20006264572380   -0.74241357868248
H          -2.16071127102671   -0.86002501323171   -1.30818759523555
H          -3.69625214112218   -0.98735581424637   -1.21418529820035
O          -1.87109544695619    2.41547898223205    0.27236075433730
H          -1.51068397257869    3.19879304580131    0.69056217310552
H          -1.11916734362770    1.97940511697160   -0.17917035477307
O          -2.46998579411491    0.12189022547060    1.56184929219095
H          -2.75644782655824   -0.41066718880040    0.78927430891636
H          -1.07549742517575   -0.49296559716998    1.80000316454213
H          -2.35519627473169    1.02534830497049    1.20397566472759
N           3.22972088128623   -0.48513234166702   -0.68882560536072
H           2.81186847412756   -0.04457080448211    0.20183393200515
H           4.15267024241745   -0.11420866008200   -0.89143199003937
H           3.25426456770078   -1.49623271994097   -0.59652703212367
