    26
        -50.47023802  Gyration_radius:  2.49905517062 Dipole_moment: 0.885
 S          -0.69902109476182    0.57152952787979   -1.79691749782295
O           0.70860355633752    0.81178754678101   -1.52369950712689
O          -1.54844159089740    1.70260718447906   -1.50203878367807
O          -1.17319725213900   -0.65437214964846   -1.16029471790127
O          -0.80359659486261    0.33754965634839   -3.36220725468945
H          -1.63347535846834    0.74536539629134   -3.58786468754337
H          -1.52604119573259   -0.59613817269479    0.42078762686307
O          -1.72081934436046   -0.52484283130372    1.38750030422478
H          -2.46185005782072   -1.10991010017060    1.55184470538045
O           2.01530938614826   -2.38424257164466    0.67284450864709
H           1.72934440179919   -2.20864107298667   -0.25531749348471
H           2.00136780355848   -3.33573739028935    0.78036571592305
O           1.10729863018780   -1.86457946859313   -1.78260966858591
H           1.46834912944633   -0.99652849573236   -1.99882697073767
H           0.17308478541799   -1.66909485387840   -1.59130936121145
O          -1.49516602117895    2.23303664325630    1.10386074701505
H          -1.63731631468781    2.19360119489970    0.13446899471674
H          -1.78705540945918    1.36732288867723    1.43214734989596
O           0.87915848693249   -0.60633303405453    2.31994644806609
H           1.33800150550186   -1.29335329342243    1.78919812317869
H           1.11728922750518    0.73459646092405    1.57900948111009
H          -0.07146517208429   -0.71732551236896    2.14512635234370
N           1.05701126274793    1.61965244260230    0.97119147319688
H           1.06298463129560    1.32945434402364   -0.03760303919243
H           1.80492729330840    2.27304814220203    1.17263658007919
H           0.09471531748058    2.04154750864911    1.13776054138214
