    26
        -50.47023801  Gyration_radius:  2.49908620506 Dipole_moment: 0.886
 S          -0.57604665531601   -1.09625876433110    1.58457865404503
O           0.29373665219608   -1.73802161683605    0.61224424731936
O          -1.98180902917603   -1.33852093604814    1.35430532124263
O          -0.27755133961364    0.32671852580179    1.72277920117968
O          -0.23579339157848   -1.76729829127906    2.98096609855400
H          -1.08213108069953   -1.80654026074116    3.41475815002730
H          -0.85739640257583    1.33259197233455    0.59168201713762
O          -1.21839998856778    1.91350659640426   -0.12233274768115
H          -1.44224921646426    2.74400276164641    0.30026945354686
O           2.90810913112434    1.13846517311848   -0.66716964375691
H           3.47624470027814    1.86707607840789   -0.41540205349905
H           2.74270377177786    0.62180288055268    0.15727558118236
O           2.32091741092921   -0.19918719342173    1.56675117641342
H           1.45609143628916    0.18955754599298    1.78700091975367
H           2.08758216097790   -1.08598739086239    1.26710491079240
O          -2.72805099527674   -0.26638014194211   -0.96277131168020
H          -2.64236137996515   -0.72062293192347   -0.09803071555217
H          -2.46363439861051    0.65112606924706   -0.78758959641918
O           0.64321662187891    1.33452743278645   -2.08058493265309
H           0.02187517838714    1.73756457086635   -1.44963453225428
H           1.51496380672681    1.30952163923980   -1.62939018904953
H           0.11185029492176   -0.12195618609515   -2.06273079452206
N          -0.38320189178612   -1.05294812554402   -1.85174216563017
H          -0.26057339277647   -1.72837172433372   -2.59716136153863
H          -1.40727132046831   -0.82352532239810   -1.67733540887287
H          -0.02082067107009   -1.42084234928524   -0.93784025859348
