    26
        -50.46577284  Gyration_radius:  2.41263233035 Dipole_moment: 4.011
 S           0.67248852067067    1.09644287969732   -0.79680417653157
O           0.85762219439695    0.94979777197212    0.64738310061225
O          -0.32115688913153    2.08563751069908   -1.12732292239042
O           0.13957791099098   -0.30671236530859   -1.30588808768174
O           1.94489968135896    1.23733159926873   -1.49206561292776
H           2.47157600684910   -0.12509479583187   -1.48249868475746
H          -0.82673491153040   -0.33605320945900   -1.06104565967575
O          -2.30783640233259   -0.31673854010420   -0.47527628630159
H          -2.73698518088459    0.47217183661799   -0.81896788409842
O           1.89211484838324   -1.41672844628895    1.04964460004341
H           1.05199047068894   -1.91433702078793    1.14413788409926
H           1.60699556158068   -0.47311491631560    1.06959513211490
O          -0.67215039170310   -2.24773157583194    1.23743985656324
H          -0.97208328554286   -1.52329546835564    1.80295901030313
H          -1.18495113065009   -2.17427387071314    0.42769910173962
O          -2.41698973819529    2.51583185146192    0.42083755005092
H          -2.59902048679103    3.45587437409578    0.43524669284758
H          -1.62873473254153    2.40738343845516   -0.15813154168789
O          -1.40672086348515    0.43964527879915    1.89400201977977
H          -1.90140790978579    1.27055152737122    1.83902484789969
H          -2.10786272741673   -0.09569995214507    0.47059895096340
H          -0.51246663646502    0.66808399455495    1.55049520788990
N           2.71413742167423   -1.18577958113095   -1.37303920676701
H           3.69958994074052   -1.36499771346958   -1.53635104489779
H           2.12875171396320   -1.70536770930972   -2.02036084193433
H           2.41535702514160   -1.41282690793542   -0.34131196526022
