    26
        -50.45958862  Gyration_radius:  2.41978215626 Dipole_moment: 7.276
 S           1.35298936850116    1.19375745436822    0.43890574047040
O           1.56968440332669    1.30277525980466    1.85369402931476
O           0.03954463636789    1.67774616174851    0.01213834832489
O           1.61071855182013   -0.12913399889409   -0.11639656271932
O           2.41626943121740    2.14724798415301   -0.25189111784296
H           2.56448281857154    2.76246854735940    0.45710920331465
H           0.69191622385261   -1.32303988509475    0.48959375627233
O           0.07635400945863   -2.01047294843259    0.83957073969249
H           0.58533559737738   -2.81668979165279    0.93331456853346
O          -0.37594696441207   -0.21724064819386    2.97938795412619
H           0.36368007685219    0.37001577951686    2.74397877249583
H          -0.25958860318932   -1.01487990319895    2.44509058627133
O          -2.23165885355060    0.93336499452459    1.43675937693445
H          -1.57292556132474    1.47645744939943    0.97953097477175
H          -1.73924007800193    0.54634711942333    2.19342737622323
O          -1.11776558451119    0.46719424440536   -1.88027869537468
H          -0.66424357943164    1.05701403895790   -1.18314176478347
H          -0.33032927725914   -0.05288535642288   -2.33917109443079
O          -2.23430001799122   -1.03435608008364   -0.25842233859569
H          -1.67235653498052   -0.23314740868807   -1.25831830429727
H          -1.50991546337506   -1.55854042392480    0.12779275079496
H          -2.42673669634447   -0.32516565191463    0.42618410752930
N           0.96845049808997   -0.71145957733983   -2.75620800048260
H           1.45039371563419   -0.57543239917933   -1.86267132020831
H           1.49107640596137   -0.23253752283974   -3.47748969852655
H           0.95411147734101   -1.69940746779929   -2.97248938780213
