    26
        -50.44824548  Gyration_radius:  2.63838550571 Dipole_moment: 4.531
 S           1.30014622602919   -0.97845672324180    0.60038298440345
O           0.22105899169630   -1.54434192319251    1.34586353119267
O           1.40623398354790    0.45723522111827    0.64718425837886
O           1.19925671207454   -1.40859715462436   -0.89125079770257
O           2.62921820383278   -1.61024567225740    1.01109842487969
H           3.33651309896508   -1.02989014378647    0.53028200322180
H           0.28473160678337   -1.20191047256768   -1.26518174436695
O          -1.17583918667978   -0.95354423972982   -1.74983279330197
H          -1.41965250103643   -1.59145217513475   -2.42344290196229
O          -0.67515442167751    2.19938932852529    0.93287670994330
H           0.10355129514636    1.61972409929485    0.94167336366362
H          -0.89499391972125    2.32535176569779   -0.00754903045630
O          -1.89060455897841    1.76279034293757   -1.49271575583624
H          -2.68873184655930    1.62934152238850   -0.97205403432558
H          -1.57237114820168    0.87763016276009   -1.72115915456612
O          -2.95356047264045    0.91421212730987    1.31962697499004
H          -3.24128416973259    0.99025429907317    2.22966979126910
H          -2.09407821913300    1.40779950560413    1.26142595862527
O          -2.32569228731598   -1.53511201884891    0.44389454169244
H          -1.70488837174856   -1.20521996937531   -0.91070520879174
H          -1.50740239035305   -1.69888274153888    0.94374576170773
H          -2.66746538211631   -0.67654365937360    0.78364904161127
N           4.03404565598066    0.09500687769423   -0.26404527641197
H           4.88558788721667    0.50546090155061    0.09517535516853
H           3.26321467136164    0.74597237326216   -0.13821711343496
H           4.14816055293002   -0.09597165417956   -1.25039490945199
