    26
        -50.44835625  Gyration_radius:  2.64716773427 Dipole_moment: 5.187
 S           0.22286992957246   -0.36968393180587   -1.45221850188141
O           1.05525881084228    0.80667877660401   -1.47857381290473
O          -1.15212458473049   -0.15394068318888   -1.13598775411258
O           0.84464069598962   -1.38825304288366   -0.46380329814604
O           0.34397509505046   -1.11882369658454   -2.78178757236433
H           1.34651915785391   -1.07753862779588   -3.00630369053065
H           0.78686994877453   -1.06267067353675    0.50137490246301
O           0.72729621771799   -0.57200496305187    1.93826400008284
H           1.08103614890739   -1.24594722595559    2.52177502417372
O           0.65708136105303    2.06230484757996    0.90412700983388
H           0.89947062295674    1.28998749824246    1.43073009296675
H           0.78362306371283    1.79263367417847   -0.01996798395352
O          -2.96546741331463   -1.36195849460829    0.42718518643224
H          -2.31537122289106   -0.99303489526610   -0.20016196721032
H          -3.78076350350538   -0.88407873793641    0.26165485912858
O          -1.89025880435263    2.26933639360390    1.73916684312388
H          -1.00226564655356    2.27106621694576    1.31677157377326
H          -1.88709427569036    2.99726509237532    2.36243035463395
O          -1.71747801024934   -0.28927661888041    2.55148495208069
H          -1.88529051535145    0.65324294784444    2.33148236507126
H          -2.21781727282767   -0.79590242448328    1.87566444657039
H          -0.26519821813623   -0.47049851384871    2.20152604611314
N           2.85898434531069   -0.70401285679244   -3.00623396704631
H           3.30728106714566   -0.44550028021673   -3.87493561329943
H           3.46153110435592   -1.33823819936331   -2.49948146816699
H           2.70269188835673    0.12884840880881   -2.44418202681909
