    26
        -50.45088134  Gyration_radius:  2.63481101569 Dipole_moment: 7.368
 S          -0.92415094596889    0.40995686659849   -0.05626942947522
O           0.40055284710333    0.93658849883513    0.17733478174120
O          -1.50704107535919   -0.24437860191580    1.07344311349593
O          -0.87708396025405   -0.54573238704614   -1.26720025653056
O          -1.84882728775664    1.51903532893987   -0.53806669712873
H          -1.44017584332380    1.95891229136895   -1.36619397497776
H          -0.39460318235234   -1.39557162100870   -1.00657904157098
O           0.43629623593399   -2.59246292943065   -0.49507994799274
H           1.03921310878788   -2.93784557025591   -1.15617337346862
O          -1.58976338876560   -3.02420003021000    1.47977025212290
H          -1.87789993491228   -2.11508287457655    1.31937633022924
H          -0.97687733555494   -3.22831690262093    0.76452715105426
O          -0.06302763938330   -1.49843455352218    3.18566652919728
H          -0.53102797044074   -2.29476340956036    2.87568321222379
H          -0.61200888698976   -0.77167118962601    2.86739751760906
O          -0.79131407743333    2.71899222285323   -2.50319043068585
H           0.15330573668323    2.85791478207966   -2.18566173429168
H          -1.19813494326361    3.58634837367182   -2.56332909566193
O           1.70493256632015   -1.19494077829199    1.22399820995738
H           1.00860347707175   -2.13018774325620    0.20815836628167
H           1.40943379063115   -0.31962282624692    0.92229604134091
H           1.21790360781503   -1.35077384610614    2.07018566907392
N           1.60479657636795    2.96484559711412   -1.42588404118415
H           1.36869313560342    2.25391265713752   -0.73292444204714
H           1.87853846624177    3.80278696495138   -0.92819676192290
H           2.40966693319696    2.63469166011867   -1.94308795740601
