    26
        -50.46622928  Gyration_radius:  2.43319151653 Dipole_moment: 3.933
 S           1.42609998776540    1.00902312439588    0.82756051532285
O           1.26848722167310   -0.26226787921203    1.50101892993945
O           0.23498387523834    1.84973924515628    0.95362745345932
O           1.87349615368948    0.90638149841423   -0.54604278517199
O           2.57200051850790    1.76758550604114    1.61589968782300
H           2.72687657777015    2.54832619620937    1.09385130811968
H           1.38825073395733   -0.38064707326542   -1.46399935768345
O           1.05922446490498   -1.13048185515361   -2.01124872947705
H           1.73729170074014   -1.30749786243369   -2.66465191902234
O          -1.60578293789795   -0.25584957589190   -1.90628170583190
H          -1.38160133316631    0.69361113490235   -1.84686295487054
H          -0.77168184198229   -0.69391084377800   -2.13009312300962
O          -2.16972711063136   -1.52230677622020    0.32790128098548
H          -2.13219105729283   -1.03603988936980   -0.53650597830200
H          -1.77072068558986   -0.60284957530358    1.34513668848690
O          -0.43023709220187    2.17779892424767   -1.61526882998293
H           0.43369152746516    1.96930699523893   -1.98189502534821
H          -0.28714244419966    2.18797047107291   -0.65219488772270
O           0.29425178413467   -2.50945250396293    0.25469240526907
H          -1.37091204939930   -2.10403426978969    0.30578106065163
H           0.54666914866712   -2.29099177941627   -0.65642461722778
H           0.76385813838461   -1.85452718647196    0.79586638917445
N          -1.26478968535530    0.05768541597833    2.10247382413436
H          -0.33393620226354   -0.35943865417992    2.27659244235639
H          -1.80811184823469    0.17854582064175    2.94982012010339
H          -0.99834755468351    0.96432138214917    1.66124781782436
