    26
        -50.45202113  Gyration_radius:  2.47527698926 Dipole_moment: 1.183
 S           0.45647093136561   -0.02653771657441   -1.46912104417854
O           0.61666043038095    1.30388916993465   -1.95841397463818
O          -0.77089596753458   -0.23627456258604   -0.72615138336301
O           1.64566577689772   -0.43209941029154   -0.57736391780127
O           0.54522653757643   -1.03131347534469   -2.60833124906320
H           0.63596799118655   -1.95814887118992   -2.18695268150205
H           1.76127094877022    0.20679060010928    0.20652752710286
O           1.87022388000983    1.23801038819442    1.32640496221397
H           2.77035476888869    1.56125744999048    1.39938410793640
O          -1.13080485039425   -2.71216784690982    0.32136028183674
H          -1.27819172991227   -1.85473040911314   -0.11360074541563
H          -0.82872209101203   -2.47737149435522    1.20809934713933
O          -0.29968187079653   -0.52277351123591    2.00547913134896
H           0.49692812598982   -0.02414606785275    2.20984553661548
H          -0.50862389998350   -0.30525111170684    1.08584949646380
O           0.64398025794358   -3.31035160464426   -1.50400880200182
H           0.02128293234894   -3.20238148257043   -0.73398809860947
H           0.25799230218601   -3.97930877873193   -2.07442144827291
O           0.44590032438054    3.00511886269442    0.16307671483340
H          -0.47927370829653    2.81183090652119    0.45759951388379
H           1.31942562714050    2.00876693210119    0.95044946055837
H           0.50720852155826    2.63591803151984   -0.73372441014884
N          -1.97153814065888    2.00712321975259    0.81429616080236
H          -1.89066041809404    1.26675886514302    0.12315575399673
H          -2.86694957377853    2.46082378970517    0.68768104285436
H          -1.96921708616266    1.56656810742464    1.72686872740392
