    26
        -50.46887314  Gyration_radius:  2.48705625829 Dipole_moment: 3.035
 S          -0.27158469706795   -1.01367270977627   -0.60220827419746
O          -1.00575197514070   -0.83942930255517    0.64369362602640
O           1.12100744195447   -1.36536984265652   -0.35335998376130
O          -0.36870361587018    0.19370197984535   -1.43330052258982
O          -0.87836127427933   -2.19172676351920   -1.39423100714672
H          -1.83063629660070   -1.97009029818853   -1.58159794099411
H           0.40304562996517    1.38428955866222   -0.69200739922848
O           0.85056695200246    2.10185055006967   -0.17137651169001
H           0.61617990896319    2.92549176854172   -0.60276270081536
O          -2.80922980130768    0.79324364476532   -0.62525062762398
H          -1.91245539069054    0.74606004930867   -1.01616432627068
H          -2.69342177247465    0.41859938713673    0.25563030171525
O          -3.30182760850127   -1.43071655344796   -1.95582879141489
H          -3.34403649150078   -1.21161456008690   -2.88905752809760
H          -3.31909270646895   -0.57065896431208   -1.46520795978550
O           3.19393739463549    0.66774990095168   -0.12666023485351
H           2.52375801052790    1.37227533942512   -0.17573276730909
H           2.81551832493656   -0.06037054738527   -0.63713808137969
O           0.05099429346110    0.97810849857462    2.21837762664627
H          -0.49795495984855    0.31186348339530    1.74306670273804
H           1.32875234862876    0.06802610618782    2.26129306248738
H           0.28210221711410    1.63074184268901    1.53575917230736
N           2.09881140334330   -0.59130604994765    1.91259883996111
H           1.64479124220255   -1.13583808859357    1.12000837765042
H           2.48810295160273   -1.18557470122475    2.63460560088620
H           2.81548845041945   -0.02563374784711    1.39685136675182
