    26
        -50.46887319  Gyration_radius:  2.48670783773 Dipole_moment: 3.030
 S          -0.29123729291082    0.75047160286094   -0.90418892962307
O           0.08470703699858   -0.36552583608013   -1.76331715770275
O           0.83198546574639    1.19613329379184   -0.09095901774761
O          -1.43698983681127    0.39785118710571   -0.05512178842809
O          -0.72638550826577    1.89256810348608   -1.84727092815197
H          -0.99387456764124    2.66576371288506   -1.28018537090034
H          -1.05122069063181   -0.89130653097291    0.81160757415285
O          -0.74831524986212   -1.66042551171402    1.36207332760220
H          -1.40465471859092   -1.76417147769094    2.05335601164315
O          -0.89905555354006    2.22663893008177    1.77125415814693
H           0.05495376414364    2.19250346626467    1.63537285337251
H          -1.23712403657086    1.48894188141670    1.22289561772142
O          -0.23087474285905   -3.12920979774025   -0.90186861272961
H          -0.49869382613621   -2.83441015020673   -0.01348699606402
H          -0.51891743372194   -2.41749523545687   -1.48879512283331
O          -1.54459917199832    3.78313416225622   -0.25863655317944
H          -1.32329885839576    3.36903689954037    0.61327904929010
H          -2.50210317742500    3.82674662988476   -0.30298946657093
O           1.84184745426393   -0.71108917939629    1.40672068260892
H           1.00624971051294   -1.12963208687789    1.67498095372244
H           2.17909590425972   -1.45850935119540    0.06858744886453
H           1.56483593767034    0.12139440628600    0.95800135794981
N           2.05562892950916   -1.82015061541199   -0.93305074948329
H           2.92834863557208   -1.98575235092665   -1.41982203852009
H           1.44239964094722   -1.09159475964325   -1.40622703530936
H           1.41729218572299   -2.65191140259919   -0.91220928783717
