    26
        -50.46577284  Gyration_radius:  2.41266692452 Dipole_moment: 4.008
 S           1.36003958119339    0.63042673303129   -0.20424332578802
O           1.94243118642851    0.87233446280672    1.09090455931184
O           0.11444767656764    1.37149399565233   -0.40545227119007
O           0.96354100049894   -0.90250980385835   -0.27270476402509
O           2.26848032288752    0.78629709898621   -1.33247889800321
H           1.67124307832210   -0.07453468668162   -2.34986190611259
H           0.55084099932037   -1.11707468402194    0.60939954786040
O          -0.22643962063620   -1.28140887613186    1.99007435545181
H           0.37700235538676   -1.01082841689399    2.68815832051342
O           0.44821132560959    1.33930182478988    3.21778486481689
H           0.87731114762021    2.00778994240668    3.75241242190408
H           1.03495063185623    1.20589228175043    2.43915665504743
O          -2.31687068232482   -1.26850077549984   -0.23928869557418
H          -2.47992124705843   -0.50502722374090    0.33089391269543
H          -1.70470961660077   -1.82872687970495    0.24599976692126
O          -1.22191543116728    0.12779809715669   -2.27663549200166
H          -0.81465325295701    0.76564829071912   -1.64479094117527
H          -1.72319591548387   -0.48431773570536   -1.69650940925168
O          -1.64107547200705    0.90018893089764    1.50173460402888
H          -1.05828287329991    1.18844723088229    0.76204191456191
H          -0.86454822277622   -0.52649355582909    1.91037682017765
H          -1.26948840713832    1.33863746118757    2.28138951797378
N           1.08736635054064   -0.74527978054906   -2.98651564304936
H           0.04864052862801   -0.45501915199368   -2.78165128951798
H           1.24678740873728   -1.69507934922858   -2.66390725712617
H           1.32980714728217   -0.63945542029315   -3.96628737804387
