    26
        -50.45594221  Gyration_radius:  2.51674562595 Dipole_moment: 5.306
 S          -0.21261962134208   -0.12066090888193   -1.01570580952255
O          -1.39342244594290   -0.30485335020605   -0.13790760125065
O           0.52670893206354   -1.35693624842798   -1.13768227801892
O           0.62723227868952    0.94892068246808   -0.47048536189937
O          -0.72303611682443    0.29711801988675   -2.39908165652016
H          -1.54353187597141    0.86016567505044   -2.20900609568926
H           1.22111580134659    0.47505731077673    0.89917367719183
O           1.47944898844611    0.10519273785590    1.79373368989052
H           1.56112252706204    0.85526353899868    2.38544193785261
O           2.72127479120296   -2.02765815678512    0.38076092385775
H           2.21006293117048   -1.70954701075308   -0.38184786462631
H           2.69075683002263   -1.30948388386251    1.02295018113788
O           0.48729394810321   -3.43668882705955    0.56735241958677
H           1.44556767852350   -3.22049230435225    0.66073950526697
H           0.27436223063447   -3.06825262709419   -0.30802173509463
O          -2.69142240677258    1.63858178714019   -1.51827672608149
H          -2.70538317529987    1.00991676106140   -0.78355277658185
H          -2.17957320099283    2.42397985400200   -1.19566032326936
O          -0.52296223167584   -1.53108193062895    1.81740710264893
H          -1.00811397871052   -1.02980746447995    1.00915695273597
H          -0.13819300955001   -2.43392840133138    1.37074157668837
H           0.27984142373579   -0.94676535613741    1.99121952228424
N          -0.85428554745013    3.38242552465785   -0.64694867189778
H          -0.49558378109320    4.00007763930347   -1.36406418390366
H          -0.19872205443937    2.60459686856797   -0.55622021228557
H          -0.85793894367544    3.89486006331540    0.22578381812714
