    26
        -50.44902464  Gyration_radius:  2.49073883074 Dipole_moment: 5.049
 S          -1.42413850438586    1.24965564907164   -0.17360972112244
O          -0.27741014954870    1.10692200095790   -1.04030220269186
O          -1.21670392347876    2.17893112023022    0.91742556455901
O          -1.88905183168453   -0.06279210847063    0.27930945074185
O          -2.60723198897236    1.87369198759662   -1.03272395481065
H          -2.87643508705804    2.59795521005688   -0.47732288327065
H          -0.88944422523780   -1.08133090213172   -0.35524523958687
O          -0.21679573241451   -1.77989531757483   -0.60613875881105
H          -0.49580697104130   -2.58202496184630   -0.16009504157924
O           0.95383003041671    1.00423766144073    1.83455453437775
H           0.42812290931801    0.39803626389346    2.41624564769714
H           0.26579240339126    1.58852938317599    1.44397618962221
O           1.07139992313897   -1.41226706356640   -3.08916763276303
H           0.42014102219375   -1.45449877412418   -2.37228596967296
H           1.47752595871705   -2.27842684316586   -3.14758377860227
O           2.14078992723687    0.82095674160187   -1.99352890692384
H           1.91679502825829    0.11635559080941   -2.63286108258970
H           1.28097116529157    1.24365958339288   -1.80349974394256
O           1.94373942236510   -0.49894065676131    0.12175028862153
H           2.15225010808141    0.08567233920370   -0.74435293115152
H           1.57160250289716    0.19007256285030    0.86514100752789
H           1.14460606184888   -1.04723823450945   -0.14139834674677
N          -0.95026784902188   -0.49888617289980    2.94859956289313
H          -1.05488915867771   -1.45808413535378    3.25498302051988
H          -1.44879385960898   -0.39024404917645    2.06342066382534
H          -1.42059717203059    0.08995311529731    3.62471028389661
