    26
        -50.45662709  Gyration_radius:  2.48393675925 Dipole_moment: 1.829
 S           0.63048287529586    1.55514729395802   -1.21249096346349
O           0.95844602684158    0.34903446030671   -1.96908010111639
O           0.79838601547986    1.34942892773995    0.21084149761639
O          -0.64779336464481    2.11017410813243   -1.60035014861466
O           1.71774346904229    2.64087097761683   -1.61884023206294
H           1.35207269821852    2.98367740623833   -2.42740133862235
H          -1.52838404740067    0.80724348359561   -1.35639159776262
O          -2.05737596411352   -0.02334696808990   -1.24649290997398
H          -2.44772642680730   -0.19415391554197   -2.10576127839868
O           1.57144682000527   -1.72217159406966   -0.69163835370784
H           1.39416598150292   -0.90747014439203   -1.29197166413423
H           2.05589491440313   -1.30364171938166    0.18251643702308
O          -0.54166426535912   -0.14337266451664    2.04853905626477
H          -1.47786665265810    0.12892216815482    2.03975504077851
H          -0.08897110598482    0.50637351840539    1.48201498019071
O          -3.13932846757905    0.27293147373684    1.30146128100127
H          -2.86187753520719    0.29199440336361    0.36988059294464
H          -3.67930892772933   -0.51221346760453    1.40843496556966
O          -0.76502463267695   -1.97268456001828    0.17570108506828
H          -0.67799234504679   -1.41844830583515    0.99756652920959
H          -1.26965838106360   -1.40489274996946   -0.43604031054555
H           0.60666152260471   -1.96551725863478   -0.35535459631042
N           2.49761988361413   -0.53789824836910    1.33400580411469
H           2.02585977871250   -0.83135764673994    2.18113176308683
H           2.09119926585636    0.35958920458546    1.05467841674652
H           3.48299286470621   -0.41821818246319    1.52528603490012
