    26
        -50.46220844  Gyration_radius:  2.42246161435 Dipole_moment: 2.967
 S           1.11960890972590    0.48107434827171   -0.30265565891657
O           1.65919660627833   -0.80100923554180    0.12963585857842
O           0.28055640349096    1.07147922449459    0.75052650981266
O           0.36196200119705    0.36057919139688   -1.54059827409760
O           2.31823510438767    1.42761125767228   -0.53489797377590
H           1.89059795694153    2.23042419877497   -0.95175631326229
H          -1.24827397248716    0.59486470551577   -1.12910272365316
O          -2.10470676528518    0.76655411397354   -0.68046296276092
H          -1.87592275789523    1.35830694672514    0.04270444185168
O          -2.16973449779844   -1.54770051742973    0.58522401888532
H          -1.50777850916790   -2.03243803416361    0.03099516319296
H          -2.37546236666735   -0.72730379698338    0.06874608565563
O          -0.16471121250699   -2.41483959832554   -0.90943019900602
H          -0.31660472009131   -2.06789896363717   -1.79208769207306
H           0.59000885043036   -1.89033222300277   -0.56982622502390
O           1.22875966578483   -2.22847845452008    2.29171140544840
H           1.00236396288570   -3.09021575315220    1.93260227569683
H           1.61291073054253   -1.71760725469936    1.54504223053825
O          -0.72758437380405   -0.57943638776804    2.34748916795037
H          -0.29308202922856    0.16878047836367    1.77757120525705
H          -1.43855112300549   -1.04669689240998    1.64758350924768
H           0.01557610628921   -1.26204829965843    2.49177710069039
N           0.75722125082959    3.16741907859033   -1.68643712696447
H           0.96624830623516    3.79066558870374   -2.45530563075338
H           0.13810812754971    3.64342665547368   -1.04381375061766
H           0.28105834537357    2.34481961330486   -2.04523444188743
