    26
        -50.46942321  Gyration_radius:  2.44392863697 Dipole_moment: 5.031
 S          -0.54135265805758   -0.89732219971549   -0.51907529260959
O           0.15100224729447   -2.13147817038081   -0.84954317143600
O          -0.73019754351896   -0.76027454866286    0.92231812401934
O           0.20337109580613    0.25018031460052   -1.05950610685302
O          -1.93153126750698   -0.89995508328166   -1.18303104502517
O          -0.19720137289410    2.40753123219799    0.31913782370474
H          -0.05197166090480    3.16280917844578   -0.25331498310960
H          -0.00556425592705    1.60715982537922   -0.22500258862128
O          -3.13001014354617   -0.25821151276277    1.99074483393755
H          -3.65045865467535   -1.04979185816929    1.84482830159048
H          -2.20996684686694   -0.49076557622848    1.75335992179265
O           1.46299217594362    0.39239715506693    1.73608554737381
H           0.58683320067150   -0.04401844330331    1.63155441609356
H           1.29426881287520    1.30505982001832    1.47302140818222
O           2.53665743032215    0.06147047461875   -2.26346866018849
H           2.40496666451806   -0.40634517077309   -3.08998164663487
H           1.63395558726013    0.25812384627625   -1.92124166335495
O          -2.73464164910938    1.30811950368216   -0.16052110275542
H          -1.93733330764896    1.80504957352089    0.09991198327834
H          -2.32637033844726   -0.01474975873569   -0.88297589212855
H          -3.07806479927454    0.92397628367778    0.67302383659818
N           2.48322560589737   -1.32389479947525    0.00537660290335
H           3.17270352487061   -1.97757902271227    0.36137351767383
H           1.57934642982102   -1.80944180122362   -0.28530519065377
H           2.21007131478501   -0.59812029731088    0.73829750530800
H           2.80527038829510   -0.81992895477004   -0.85606647909848
