    26
        -50.44768855  Gyration_radius:  2.67887858849 Dipole_moment: 3.499
 S           1.49493878496674   -0.73493895748381    0.81269332652493
O           2.43284719268640    0.19069910471605    1.37546538813726
O           1.30821802312585   -0.71457944795393   -0.60176047520718
O           0.15646990297005   -0.51274264115232    1.54578538446788
O           1.88374511854830   -2.18246082547758    1.22667725492071
H           2.10362236723695   -2.12527495871275    2.18677593527775
H          -0.69380986305819   -0.65630394918053    0.96757417447629
O          -1.96124007762142   -0.74621818526278    0.22005937452079
H          -2.68057303733824   -0.82149258637966    0.85024039047976
O           2.28501793535154   -1.22583731504128    3.62756941013957
H           1.44578033960312   -0.96563351125251    4.01546176191164
H           2.56663453985699   -0.48676041412692    3.06030100882338
O          -0.76147330623755   -1.44506954570874   -2.24710154837729
H           0.10819902977590   -1.26997684419868   -1.85705638080153
H          -1.35826505252356   -1.50122254856281   -1.49036634902577
O          -1.58589959986457    0.90797197605294   -3.23821295260719
H          -1.21082185880437    0.03187590665531   -2.98820369665468
H          -2.25891979819824    0.73323241512998   -3.89695615830297
O          -1.97494848518317    1.61529260258654   -0.67384227203291
H          -2.01176163878571    0.22252314754441   -0.15617921820268
H          -1.07307839448508    1.92435516717100   -0.41625669068251
H          -1.92216954717831    1.49834077921126   -1.64692524770946
N           0.64416598721574    2.08860385315519   -0.16936647697464
H           1.01606648007143    1.92224138797177    0.75822833916381
H           1.07265064602872    2.93576238543162   -0.52381867318483
H           0.97460431186179    1.31761302490169   -0.74078558908557
