    26
        -50.44768860  Gyration_radius:  2.67881000929 Dipole_moment: 3.501
 S          -0.24199803745462   -1.80010336012336   -0.36557595922321
O           0.62273535134062   -2.71214055102957    0.32263364922506
O           0.35205972310629   -0.89041164929603   -1.29039577007525
O          -1.03855921042935   -1.04153269062267    0.71515395760433
O          -1.34500592750919   -2.59853737605573   -1.11641585100600
H          -1.65159227862337   -3.28122015489398   -0.47349851196631
H          -1.26892143674900   -0.05580627987225    0.48446243806730
O          -1.57229218178779    1.37499476231291    0.30010924482619
H          -2.25803000450239    1.62285366627357    0.92345273464730
O          -1.56880035769857   -4.03944104608208    1.05468662509799
H          -1.94381325206442   -3.50573863685906    1.75964161549440
H          -0.61640691866139   -3.83960677594290    1.03580312209110
O          -0.38277957920997    1.56753188064246   -2.26147036859875
H          -1.05672244118819    1.64969043548775   -1.57516668623763
H          -0.03152833403547    0.67127866340110   -2.14984666938908
O           1.46974834186217    3.19557836712901   -1.20505266246882
H           0.86737853726358    2.59623381636555   -1.70374909898604
H           1.33655053546936    4.07198391796976   -1.56781359587660
O           0.61637536748434    2.28098304446059    1.17453184013529
H           1.14501737056590    1.45209240293754    1.26775803705761
H           1.01019242984522    2.73354114649817    0.39771429662997
H          -0.69066174876202    1.78901181125431    0.66621494376709
N           1.94792792648984   -0.07197555789414    1.00470520544471
H           2.94945665961802   -0.08733590978551    1.15855675648838
H           1.79071486878064   -0.17974588629670    0.00784419823158
H           1.55895461684486   -0.90217803994920    1.43571650901310
