    26
        -50.44768855  Gyration_radius:  2.67871242057 Dipole_moment: 3.504
 S           1.02683054693322   -0.68162613217825    1.38399669559773
O          -0.22979557173540   -1.23795190626575    1.00033836468286
O           1.07310546417129    0.09664286196837    2.58615386901890
O           1.60131867109698    0.20311777521534    0.25931337781089
O           2.05866412558690   -1.84126780695565    1.47754025966208
H           2.87640447867892   -1.42877411193498    1.84443293528441
H           1.17657253672214    0.06021153396867   -0.67733383756199
O           0.58665658316344    0.00406457592729   -2.02694358321579
H           1.19572296440323    0.41810374884621   -2.64163618261434
O           3.72839915151787   -0.07530174250643    2.44404288555879
H           2.87619610586349    0.22637728946970    2.80461937434254
H           3.96930335369322    0.55103051669953    1.75692150538644
O          -1.29709804860679   -2.01543996994218   -1.40391906000940
H          -1.05346748522878   -1.93414370307413   -0.46948946812032
H          -0.58807470000527   -1.56377639361211   -1.87847651189546
O          -3.25138119298911   -0.21838493000802   -1.79088438389909
H          -3.73664677394931   -0.47212963423053   -2.57673088676706
H          -2.63059271527305   -0.95903269320658   -1.59902427842230
O          -1.30390404377947    1.62677111748098   -1.61696657286193
H          -1.24023020767088    1.75430946827773   -0.63973325276774
H          -0.19642456222720    0.67804447927499   -1.90345290219056
H          -2.11136445660798    1.08209484258325   -1.73820218456277
N          -1.13694946357014    1.52886128478138    1.08502224733995
H          -1.29124575277692    0.52708875985864    1.13718681855885
H          -1.85470777204992    1.97702805048211    1.64257554172544
H          -0.24729122537670    1.69408270912891    1.54064923995476
