    26
        -50.47128652  Gyration_radius:  2.44445033342 Dipole_moment: 1.911
 S           0.96221628312041    1.17730305828578   -1.12853444968864
O           1.20775191429026    1.81691508394165    0.15204977240458
O          -0.37907926827758    1.44326897776172   -1.62290566935370
O           1.28302599596885   -0.23600012074697   -1.12105017497687
O           1.94952198771502    1.84823622438092   -2.16477114163212
H           1.58154594994142    2.72371123505590   -2.20547578028578
H           0.92892788963949   -1.12854043029206    0.31803551898542
O           0.63386367651583   -1.55744210528972    1.14261487354440
H           1.02703608435770   -1.00934510553337    1.84226704281053
O           1.76822798215517    0.57408754924824    2.46130443767211
H           1.64441727964119    1.06363368678376    1.62193445173772
H           2.70012852252423    0.63633945664017    2.67342574804579
O          -0.02447911735718   -2.44773577613479   -1.87123497672088
H           0.12466990615771   -2.98297401006682   -1.08634649320741
H           0.60827998117331   -1.70714123438388   -1.79640345896922
O          -0.96590531526506    1.62971171323888    1.76227093957921
H          -0.31862892331014    1.82134555913080    1.06062869332912
H          -0.43616250623123    1.49522643163911    2.55452165577249
O          -1.92470336383598   -0.81317304456722    1.23251412719693
H          -2.06569483212315   -0.73359323774450   -0.27285739547578
H          -1.04275414163531   -1.24669003232736    1.31388551863194
H          -1.75813029204267    0.11771845838102    1.50021849420355
N          -1.94096334338125   -0.64810178161073   -1.34822101471819
H          -2.83004414796822   -0.61807852466952   -1.83364825008871
H          -1.34740513170089   -1.45231637500286   -1.66577661663982
H          -1.38566307008052    0.23363435388063   -1.51844586215576
