    26
        -50.47037234  Gyration_radius:  2.48288428488 Dipole_moment: 2.684
 S           1.28401488133854    0.31038972625081    0.52680043663003
O           0.36944894786751    0.24280203124148    1.65029493613796
O           0.73749593711380    1.13728956664961   -0.54981794400748
O           1.69159055423639   -1.00068521663250    0.03478528181525
O           2.56278565063906    1.03740005249624    1.05691100469402
H           3.23059966299983    0.88452650522831    0.35821215391106
H           0.43346130137469   -1.95021948480589   -0.45881494932912
O          -0.35818081390005   -2.44907442214404   -0.76497487169195
H          -0.05188254950894   -3.32390412384010   -1.00843097471926
O          -3.02847925035017    0.57242504806484   -0.11264793213552
H          -2.81787601461510   -0.19234658604885    0.47790891275887
H          -2.11534811697060    1.56706147418751    0.42832977628141
O          -1.83943496436397   -1.32675700452679    1.30290364937469
H          -1.51211542649876   -1.92722021451250    0.61607506071867
H          -1.05091433042794   -0.84196516310482    1.60158112808092
O           3.95787253944168   -0.04587338772386   -0.90591121887097
H           4.69956085114105   -0.60306251393023   -0.65879372216511
H           3.15118510265475   -0.58526456739554   -0.79037615418670
O          -1.25077606274067   -0.09526885015262   -1.96400837247726
H          -0.47487296437023    0.38886363828489   -1.63249637297144
H          -1.07219777214852   -1.02547480084117   -1.76082618117004
H          -2.56208558740245    0.35051231692338   -0.95564097039173
N          -1.23481421113308    2.13931702867634    0.80386108202788
H          -0.83502287843646    1.60638247027833    1.59332144793790
H          -1.43368936663368    3.10674608896335    1.03078125901111
H          -0.48032511928259    2.02340038830043    0.08097354469016
