    26
        -50.46862832  Gyration_radius:  2.4747516485 Dipole_moment: 4.022
 S           1.66257270585757   -1.43483321253534    0.47060284794080
O           1.80869699653876    0.03079006244665    0.47485066794727
O           0.92177538689620   -1.87753604478811   -0.67884040960183
O           1.17887739542710   -1.92546585368556    1.74439867772716
O           3.13901978120228   -2.00339432410127    0.33010232589573
H           3.40490367988572   -2.05142972965168    1.24240813477167
H          -0.38045328496353   -1.53147823298148    1.68624175838361
O          -1.30957493050309   -1.19374432792319    1.67607821150767
H          -1.84658476018800   -1.88256035154247    2.07166218038902
O          -0.07343722907623    1.25755722133718    1.94319778055751
H           0.72372154687835    0.86156522300989    1.53830971530868
H          -0.65528212292892    0.50174389424917    2.11595893905406
O          -0.64218790422609   -0.78348625970909   -2.53753206936752
H          -0.11458894701666   -1.42820890253942   -2.02979316697291
H           0.16629132700125    0.41600804263754   -2.12190439864906
O          -1.15186754210557    2.47338240275339   -0.08340682554681
H          -0.76305510600274    2.06802115715480    0.74774897981182
H          -1.43450640276364    3.35719504106635    0.15188842699316
O          -2.35461057813654   -0.05792208964650   -0.62925092455550
H          -2.14973768485387    0.87549216687831   -0.48316858925175
H          -1.43959924769852   -0.62743052845698   -1.97931090182609
H          -2.02522516592139   -0.52630660924064    0.15692932661879
N           0.71480284909686    1.20495867411290   -1.60286703223313
H           1.35549994453470    1.69246891285380   -2.21809760231511
H           1.23726645830574    0.73075943385883   -0.81152280321669
H           0.02728282475412    1.85385421445274   -1.17468326937824
