    26
        -50.43668959  Gyration_radius:  2.82958650301 Dipole_moment: 6.494
 S           1.16807263293541   -0.18369029350562    1.94235304072986
O           1.60561731391249    0.95636249723836    1.21115326047354
O           1.28197499891739   -1.45515965904657    1.29802321400299
O          -0.33084693291910    0.00474328334198    2.37087766112514
O           1.86353099832530   -0.20651151549176    3.32011246789229
H           1.41546361790665   -0.92711843215158    3.82187899113534
H          -0.88237830697487    0.12724641201373    1.51760351352643
O          -1.60588296113307    0.16405875209412    0.19225508861245
H          -2.53564309487896   -0.05790459648458    0.27256174380281
O           0.09927810298367   -1.79804545603565    4.40249525444567
H          -0.46734658178503   -1.40461455673833    3.72504896438018
H          -0.21927134402064   -1.49294073007001    5.25609709631163
O           0.86937488704404   -0.37128108920211   -2.67378698844265
H           0.96106592263884    0.41425115825390   -2.10485009447769
H           0.28565016141008   -0.06293034823738   -3.38638535606138
O           0.35225455666980    1.81904023437572   -1.06420478626669
H          -0.48377445738535    1.46811759371304   -0.73194980806374
H           0.97003363331130    1.71748711897307   -0.32452706195906
O          -0.37413357156824   -1.78167260686819   -0.83421846051666
H          -1.15730816384301   -0.64186442982102   -0.28397451478544
H           0.11084183519414   -1.38648717319660   -1.60730457635389
H           0.30153054776702   -1.90403414228574   -0.14573935790364
N          -0.73220565732469    1.48616694466477   -4.02123993797475
H          -1.73507335867331    1.57214822886335   -4.13031044384188
H          -0.29751560391240    1.92659013415812   -4.82277957781779
H          -0.46330916459394    2.01804267144843   -3.19918934197828
