    26
        -50.46802613  Gyration_radius:  2.56450432434 Dipole_moment: 2.933
 S          -0.94553637621837    0.96012718445958    1.65204737096841
O          -1.66747744604191   -0.00415050813339    0.82598081684858
O          -0.58074676221576    2.15025700874349    0.92675024622087
O           0.18391434480469    0.33338401785421    2.33157607114924
O          -1.95038680173607    1.41338355055360    2.78942766352323
H          -2.10635740714635    0.62763603344624    3.30613928824281
H           1.32551672742337    0.51116970418767    1.16196485453630
O           1.85978448594347    0.63776765177364    0.34296460279697
H           2.12439126045276    1.56008253561265    0.35750637046709
O           0.45047434824619   -2.05552562914126   -2.59132755173866
H           0.95867284383707   -2.26250148351233   -1.76575919618981
H           1.04309563400378   -2.22997346272472   -3.32296936325817
O          -0.96799224893489    2.79164406418816   -1.63462170289275
H          -1.81658781203416    3.22529526540162   -1.73242473378590
H          -0.81379700896930    2.71158508184060   -0.66954896160365
O           1.77591501025692   -2.20136610524640   -0.30970638968751
H           1.11678290612915   -2.38792494273201    0.39281925365483
H           2.14441872713678   -1.33945755248312   -0.08633008638648
O          -0.16570065953641   -2.21493606676171    1.56766654078797
H          -0.98836889872181   -1.98352267972601    1.12255969008324
H           0.09044186743694   -1.39361363772293    2.02409882803811
N          -0.21861656903998    0.22324823725492   -1.36886187585045
H          -0.09597034048547   -0.59072135564816   -2.01306876608333
H          -0.91906417212170    0.01589688978945   -0.61570043248574
H           0.67673172790734    0.39984920771917   -0.86200843260266
H          -0.51353737022517    1.10236698105969   -1.82917411471904
