    26
        -50.46629878  Gyration_radius:  2.43177601424 Dipole_moment: 7.855
 S          -0.89498707604944   -1.58481762845329    0.37364214891436
O          -1.83261698741175   -0.62874014132221   -0.23070484588980
O          -0.44115454052785   -1.18659933104041    1.67294590794096
O           0.17504245609522   -1.88763100891241   -0.57051735429920
O          -1.71767703262094   -2.91947764415915    0.55322879564509
H          -2.00795722039437   -3.08925633462957   -0.33566502762776
H           0.76075378392786   -0.97103692286586   -1.81395856637883
O           1.10754397620227   -0.34783249836046   -2.49551520848499
H           1.15282448058424   -0.84101002809325   -3.31542659869640
O          -1.98805858437119    1.12050757679879    1.84881233038254
H          -1.57443040410104    0.59937289114236    2.54369970835805
H          -2.10190401134109    0.49146544999336    1.11639685283565
O           0.09598297077372    2.50201256246595    0.85011987686868
H          -0.71612847577559    2.24415661515609    1.33851659309308
H           0.79691717030800    1.90960750727234    1.23098587131034
O           1.61045639271096    0.59179315640740    1.80981499949506
H           2.24891074697796    0.13531183398085    1.23292284163376
H           0.90802075145530   -0.06525033388030    1.95207701773818
O           2.74059497881209   -1.01568378657166   -0.07869635993868
H           2.80900600414908   -0.57907001486268   -0.93261497603909
H           1.90663018479482   -1.51316031419464   -0.10659082713613
N          -0.60756756088038    1.42058532350800   -1.35847553310829
H          -1.18145289225222    2.03293174170329   -1.92768619098555
H           0.15780983456554    1.00211604763365   -1.91323844353961
H          -0.22719892540063    1.95801951468657   -0.46609878535429
H          -1.17936003024058    0.62168577656806   -0.97797423674688
