    26
        -50.46042985  Gyration_radius:  2.69226437471 Dipole_moment: 3.842
 S           0.62508929540974    0.53083672995959   -2.57548153994533
O           0.21323922075783    1.86448201948965   -2.14505886355455
O          -0.45713974122593   -0.41798535143461   -2.67057916143653
O           1.72103226563162    0.04155297513662   -1.74226827057935
O           1.21131973953259    0.72120300685677   -4.04034374101024
H           1.64226441818260    1.56877688430121   -3.98110521671116
H           1.64797427782940   -1.19045378985843   -0.79169620644289
O           1.57449074304464   -1.93547795784059   -0.12557845808210
H           2.20460865001961   -2.59999835451562   -0.40629699319177
O          -2.27456664541979    1.74835888836698    2.09923607095028
H          -2.06788238279487    0.84261644173726    2.42308022685893
H          -3.22170806389874    1.78048209977218    1.96066216748908
O          -1.10222928183341   -1.38964766463120   -0.32708593799856
H          -0.26804748447537   -1.86518828116777   -0.17779024093152
H          -1.06798801368525   -1.15915576740296   -1.28317820775967
O           1.33776488387854   -0.27120485112207    1.97613093684066
H           1.49125534851046   -0.93615454462782    1.27168502869870
H           2.14158678774322   -0.22499340020640    2.49416645642515
O          -1.41920066950060   -0.77636927446267    2.47296378453418
H          -1.59200132939454   -1.21305428431253    1.62900751870266
H          -0.45816932899697   -0.66149963557316    2.51560606152625
N          -0.37306546392090    1.13489687451859    0.28678235161553
H          -0.14295673867434    1.59033983438348   -0.63982316762561
H          -0.74504121739804    0.17243045499677    0.07252079101704
H           0.46880863889680    1.00205863822153    0.85963674490927
H          -1.08943788825343    1.64314831924859    0.84480786577460
