    26
        -50.45441976  Gyration_radius:  2.86479096066 Dipole_moment: 5.961
 S           0.02909356870149    1.01671739639069   -2.79394332365898
O           0.58962378668537    1.96889943083403   -1.86712794899522
O          -1.36245929992753    0.69070964108301   -2.50011491236102
O           0.83812660597421   -0.19688022344306   -2.93097708380998
O           0.05430057262629    1.66184283444522   -4.24432922279994
H           0.58892891246454    1.02738343058342   -4.71010046168471
H           0.86694046988982   -1.10241424007104   -1.66412661963774
O           0.83437507691841   -1.63336929948441   -0.81436410696013
H           1.47857622207572   -2.33523116755137   -0.91673660890675
O           1.86053735881580    0.58390175421510    2.97967624356191
H           1.56393050634391    0.85606872576414    2.08901294595863
H           2.74928203308237    0.24222864203539    2.87358834637970
O          -1.55394462802888    0.51084083890728    1.62828980240055
H          -1.25053831284067   -0.04285551784387    2.38047398989822
H          -0.73602870540503    0.92648563792047    1.28872228608928
O          -0.34289654108986   -0.85098362045242    3.61226478146342
H           0.51105863280145   -0.39664968115371    3.44697298785492
H          -0.61113011951953   -0.59236028177684    4.49522560442072
O           0.87079489060477    0.84768365491144    0.47529680250627
H           0.81869899932900    1.39812744848985   -0.33963543302837
H           0.97966842747687   -0.06149631099428    0.15474450818801
N          -1.77702663712793   -0.92828757935444   -0.52492125375057
H          -0.90497149270163   -1.48165604637297   -0.52946351177887
H          -2.59643386602232   -1.51354381585004   -0.63933316150289
H          -1.81133363477107   -0.35811219723568    0.39172020436934
H          -1.68717283635355   -0.23704944397672   -1.34081483421142
