    26
        -50.46655341  Gyration_radius:  2.5040594609 Dipole_moment: 2.050
 S          -1.37080064311756   -1.49144459239541    0.10084568933020
O          -0.57866384200635   -2.05910778616606    1.15971263881419
O          -0.69835411824103   -1.50031293229192   -1.19250971806033
O          -1.85442116516716   -0.14600656530382    0.41638357938463
O          -2.65505933635001   -2.40353162487935   -0.04875912381966
H          -3.15816093836971   -2.02287219965378   -0.76365467288858
H          -0.71193119314317    0.32526108318455    1.49237905897048
O           0.13216339224435    0.52239303040634    1.96248287131232
H           0.24767407744330   -0.20574281984587    2.57851601338985
O           1.17606365361958    2.19284045970768   -1.56945944283804
H           1.00313025331874    2.73546930121448   -0.77602094226585
H           0.28259043455728    1.96571408639390   -1.90037633813659
O           2.08011274939094   -2.42598757003643    0.82368181396014
H           2.32226066563055   -3.33353639159044    1.00998432798472
H           1.11636206452215   -2.37168004201164    0.97309973362510
O           0.16126056659107    3.07075622880807    0.79572047602116
H           0.25265064668834    2.32361988593885    1.40279616727199
H          -0.77596082578906    3.14168752881614    0.60168584862407
O          -1.28956436952271    1.10915167764111   -1.90288168083671
H          -1.58586697726987    0.82503107584937   -1.01832565397295
H          -1.09428374806437    0.28131541603664   -2.35405755519939
N           1.42716903661154   -0.10557858548664   -0.36835315136426
H           0.67853145351758   -0.69617802847374   -0.80370729906186
H           2.26708900773861   -0.67795541852074   -0.27732830792816
H           1.53151496504252    0.80223037020173   -0.93032238516611
H           1.09449418011768    0.14446441245656    0.58846807284870
