    26
        -50.45638927  Gyration_radius:  2.57458174762 Dipole_moment: 1.938
 S          -1.58949221306262   -1.61429277478826   -1.12895017372538
O          -2.62414823351468   -0.62469893784736   -1.02464902615150
O          -1.44102312154624   -2.43857948203430    0.06583273737931
O          -0.30254185997102   -1.00611681981498   -1.49514315435375
O          -1.96324990385174   -2.60941064457274   -2.30382012778995
H          -1.41661975224202   -3.37453624956883   -2.14417841051532
H          -0.58873079825245    0.46165043606760   -0.97485445506510
O          -0.81043483989486    1.34723180813192   -0.57759783293668
H          -1.69575173381219    1.52271171764332   -0.91001189244164
O           1.91907780321145    1.69987643610240   -1.42423828767244
H           2.11628240818585    1.49438955083800   -2.33930537873351
H           0.95406356476516    1.69389747595038   -1.34067129856496
O           1.11001895737473    2.36576819606331    1.28212833258733
H           0.34388138963842    2.19426299077199    0.71762851458791
H           1.84742930830766    2.48338396511831    0.67545412990252
O           1.30090536837502   -0.11903213638668    2.31771453195818
H           1.70412513043511   -0.51871846107602    1.50744169819816
H           1.37445714035153    0.84727746749336    2.17382491308771
O           2.03115224223269   -0.80359101837893   -0.13203941757321
H           2.25658612833339    0.05896460743228   -0.51494552600885
H           1.22795086210248   -1.07821793284220   -0.60867804151481
N          -1.17074190107304   -0.39124991131597    1.65495879324116
H          -1.28282849738413    0.35976296729401    0.95661257613596
H          -1.86060817460439   -0.30603050887528    2.39401250011199
H          -1.29892407566882   -1.30854246825537    1.13186426602443
H          -0.14083520844359   -0.33616027318699    2.04161002984062
