    26
        -50.46898146  Gyration_radius:  2.39186369378 Dipole_moment: 6.334
 S          -1.49971549846620    0.03093719940756    0.07900491831404
O          -1.68701194317945    0.95301998044222    1.17541327316140
O          -0.90995320973710   -1.23635590835054    0.56087217012567
O          -0.64245894195791    0.59125944346260   -0.96848417223973
O          -2.86832400471899   -0.29118251197768   -0.54087178326140
H          -2.64452491020126   -0.62680700303677   -1.45878600022654
H           0.95296349888093    0.15563220435528   -1.12933589672703
O           1.91905825492431   -0.02426932533769   -1.02492287816190
H           2.31118827676400    0.85641067407512   -1.05373311583240
O          -1.91518322302848   -0.97927246872796   -2.82812139583202
H          -1.25645026750031   -1.66342720051924   -2.57124387410334
H          -1.41679738990901   -0.15572888931930   -2.87579389321352
O           1.18793772485734    2.37760480003206    0.12760759626783
H           0.38830174196731    1.99640369118335   -0.26548109568335
H           0.96483743082293    2.56719624642714    1.04321707088468
O           0.28877808233986    1.56450605839150    2.72868582799158
H          -0.03653266338133    1.67809528824265    3.62292246577417
H          -0.51457105937545    1.39641592253280    2.16658412043017
O           0.04579579366339   -2.37609949152936   -1.65239132481193
H          -0.32248560288138   -2.09648421066705   -0.79061079473800
H           0.88921764251842   -1.92316865437097   -1.74451167552175
N           1.38581707401359   -0.56664010661648    1.50667525313757
H           0.42373088571820   -0.96072661043885    1.23585729946527
H           1.81853919428301   -0.31798672218621    0.56901624550729
H           1.19451104668184    0.29202325261227    2.06915458625813
H           1.94333206675104   -1.24135564820737    2.01927705292534
