    26
        -50.44866960  Gyration_radius:  2.64182387416 Dipole_moment: 7.337
 S          -1.54491555978767   -1.84282203294853   -0.78564613969091
O          -2.00788538595974   -1.76659488477454    0.60668674929191
O          -0.41618584893825   -2.69803408706842   -0.98974131036001
O          -1.36156868226009   -0.48589055503334   -1.31128797093957
O          -2.76727614802194   -2.46567616013626   -1.57994442630232
H          -3.52677212537931   -2.07777978380474   -1.15708290992477
H          -1.56351045671353    0.88768002152238   -0.51917354275714
O          -1.65102915981358    1.69203740976641    0.05813535283337
H          -2.39099825343009    2.19470654916171   -0.28341205104188
O           1.76040117324927   -0.16178416985408    1.11775153307314
H           2.68064871643820    0.13581247239747    1.09752907995546
H           1.60327839141560   -0.48433748019959    0.19389784955161
O           1.31018805058953   -0.76602760972377   -1.42352528053297
H           1.02177705081321   -1.69478489470767   -1.38099883137988
H           0.47691921486940   -0.30996992655928   -1.61961789769423
O           3.54641145943598    1.03730972361511   -0.60245394207895
H           3.11070705614401    0.44855103305489   -1.22913987256497
H           3.02911618861209    1.85109569824099   -0.60419069335108
O           1.08193668879688    2.46288246235710    0.16903651775827
H           1.32015263782014    1.62389464740422    0.58773772293245
H           0.13973378866147    2.39910564204949   -0.02731320589267
N          -0.76387540018483    0.01388818645833    1.96755742115847
H          -1.11404775329676    0.86843009005902    1.49535379802486
H           0.26306809072253   -0.07163402384929    1.79713204711817
H          -0.97148011550793    0.01663415424678    2.96043383449109
H          -1.26479361827694   -0.80669250167083    1.46227616832081
