    26
        -50.46495850  Gyration_radius:  2.60490639187 Dipole_moment: 2.543
 S          -1.34761723711570   -1.09985209989485    1.49011728451574
O          -1.62660550528533   -0.29712509338388    0.28742835230791
O          -0.03220053028477   -0.79413066891545    2.02106085247077
O          -1.63188957263563   -2.49091304371495    1.29764103620643
O          -2.36912902187371   -0.55390850918068    2.59338957184562
H          -3.13644096157883   -1.10516831741391    2.47537398856271
H          -0.46709394839861   -2.86419370630651   -0.68309206238929
O           1.89369416255131   -0.80025775137187    0.14166464134986
H           1.55024621172616   -0.89625934760001    1.04531798593995
O          -0.21087037336134   -2.03334970158866   -1.09446994882206
H          -0.84416244808467   -1.38749887423753   -0.71859704873624
H           1.31304287832246   -1.38936607397679   -0.37756492530802
O           0.60121502234494    2.20996765975633   -2.61868612097746
H           1.13106920821434    2.74454997151331   -3.21039145854897
H           0.78221234825799    1.27286155011268   -2.84744843475441
O           1.27877717651403   -0.39517365200048   -2.84380401032714
H           0.61335808663998   -1.01307126900317   -2.50926747715074
H           2.05070457204813   -0.51920385380921   -2.28406020052516
O          -0.16395550661803    1.80087140116905    2.56175067375181
H          -0.06776927777859    0.82638983533614    2.51589719143228
H          -1.01910802879999    1.95183794406649    2.96685617029430
N           0.35257639264686    1.40072177159944   -0.05390329134900
H          -0.53113606630545    0.82705805990844   -0.02866463871176
H           0.34490043941061    1.95102911801701    0.81915728456830
H           1.13053011401801    0.69608044612794   -0.02142952358122
H           0.40565187553009    1.95810420478790   -0.92427592209038
