    26
        -50.46886227  Gyration_radius:  2.50853996358 Dipole_moment: 1.116
 S          -0.97780900114140   -1.99001809232366   -0.11799209705903
O          -2.17110350744289   -1.40700885983046   -0.66278440344313
O          -0.82411784861073   -1.77489947608192    1.31972754114915
O           0.23466015810163   -1.57511853565497   -0.82795720880882
O          -1.08358225264006   -3.55524583838573   -0.31729132733864
H          -0.30223555630288   -3.88802605318142    0.11355364015799
H           0.21957706779610   -0.25953901357726   -1.76042887737774
O           0.19058116001015    0.56772577395204   -2.30468004348273
H           0.30116872947412    0.28642945002905   -3.21420798591405
O          -2.02738809319380    1.23375907758497   -0.83266354100936
H          -2.32429609581880    0.30048508368918   -0.84933070335126
H          -1.30700101201774    1.25680559402906   -1.48366551574778
O           1.84258252978446    2.31202096234171   -1.01706156270640
H           1.49573036410593    3.17823909359767   -1.23466066760325
H           1.31627375922707    1.66430608910807   -1.52353051296771
O           1.62567696664579    1.39039742176779    1.51572527228419
H           1.83856340248169    1.77837511192370    0.64300191298610
H           1.94292321906946    0.46119589281736    1.47375309801510
O           1.88737412992001   -1.27051772463721    1.24329426925495
H           1.47800989151897   -1.36506127183635    0.36258150844766
H           1.20038531233734   -1.57805705923675    1.84515803518595
N          -0.92219140795757    0.86097844916205    1.54108686776406
H          -1.37721635692023    1.16146017970730    0.63038333474995
H          -1.42894569500420    1.23573004072587    2.33582628586607
H          -0.94381968988956   -0.19077519873811    1.55588811212341
H           0.11619985647003    1.16635890304004    1.56627456882476
