    26
        -50.46075053  Gyration_radius:  2.48317955121 Dipole_moment: 6.917
 S          -1.28744385578459    0.63223921337345    0.42572058506999
O          -0.94839216021035   -0.37811180469749   -0.60747662623724
O          -2.25227693368281    1.58414880919310   -0.07016302275234
O          -0.05935882540049    1.28752821575002    0.87758367596060
O          -1.91290847371399   -0.13053537326685    1.60479246517878
H          -1.29945663551704   -0.91569116035730    1.81098658748725
H           1.40053331083508    0.96916868608526    0.52538296465043
O           2.33566141120345    0.80006948370096    0.19259805976125
H           2.89975887022335    1.39182481229440    0.69275337787919
O          -2.00063604888965   -2.81467641929194   -0.21962145857214
H          -2.91326652688412   -2.64178355857735    0.01873997326622
H          -1.63020192804737   -1.95490254284681   -0.50161682859263
O          -0.56612139548936    3.10912404621166   -1.32095820640752
H          -1.33121410986393    2.61657248319579   -0.92359372011473
H          -0.13422083824296    3.51094264450592   -0.56276513253136
O           2.09669893484669   -1.83708953156880    0.93824088298645
H           2.72087842780099   -1.97821015738994    1.65205510580984
H           2.22648324683317   -0.92597758450884    0.61960657913829
O          -0.43936307639308   -2.18784483630782    1.90176337804513
H           0.45761538246998   -2.06805384435828    1.53069153609573
H          -0.92701739555398   -2.70339183894376    1.22883361701307
N           0.73998294490336    0.92657885251686   -2.00264752250734
H           0.03557135177554    0.26130718603541   -1.51259117092671
H           0.88362687152348    0.68454017510925   -2.97671500882679
H           0.29538060713454    1.88579943277944   -1.87351875267845
H           1.60968686412245    0.87642460135704   -1.44808132818806
