    26
        -50.47165444  Gyration_radius:  2.51506476649 Dipole_moment: 0.562
 S          -0.53814642021473   -1.94325236134932   -0.10670475514214
O          -1.30316305595948   -1.40767545617393    0.99952283669532
O           0.76482762147223   -1.29101399005844   -0.23178415348267
O          -1.24786261207285   -1.95788608566522   -1.36820860167461
O          -0.24160449106475   -3.45362265623917    0.26157939444402
H           0.11430855200973   -3.79178809792120   -0.55319547288637
H          -1.37919678402668   -0.44494323983571   -1.89878991715133
O          -1.43795467040319    0.51268807189026   -2.14816411928533
H          -2.07259906043654    0.55966312064112   -2.86537355306652
O          -1.79232346680769    1.19524183921962    0.47855240208946
H          -1.76975040262492    1.15952644375196   -0.49395560540103
H          -1.89979831330435    0.26899429502853    0.76014038267678
O           2.28875338963297    2.48943366262373   -0.40645108008242
H           2.06665956807037    1.83659278557947   -1.11471767774155
H           2.07443594501323    3.35343961172739   -0.76003082331761
O           0.13614666843238   -0.73921778917657    3.17288557318969
H          -0.11913805133016   -1.26273791563247    3.93283355768918
H          -0.41612037374186   -1.05244376368247    2.42914744365776
O           1.33913740114511    0.64442252577165   -2.07936342082527
H           0.40327894260973    0.80165520478814   -2.27919271646114
H           1.33113947763440   -0.15882735687420   -1.53317079708640
N           0.75822319882222    0.96113739223270    1.17911052476505
H           0.86268560863108    0.75458319771104    2.17516152758433
H          -0.23697769723685    1.25670216738810    0.98457085842886
H           1.43458995955818    1.65644519526601    0.79994136129826
H           0.88044904626172    0.05288317901509    0.66565683107031
