    26
        -50.46031828  Gyration_radius:  2.53877248264 Dipole_moment: 2.442
 S           0.73831733962961   -1.84373482488678   -1.04753165667419
O           0.43970028521000   -2.05359096206427   -2.43028266583189
O           1.47074587712076   -2.86891834071597   -0.35076731971332
O          -0.73689936198279   -1.83722647736735   -0.32494626844977
O           1.25485419597342   -0.50226681469087   -0.76145833199840
H           0.23624409486911    0.29858149441681   -1.73087918633364
H          -1.20275239172652   -2.42846666421213   -0.90871348424183
O          -0.44642696375942    0.78651283399645   -2.24546771008136
H          -0.49090091900880    0.32001048195927   -3.08314741089184
O          -2.22626317035253    0.51428761518373   -0.14129563264026
H          -1.88200929095666   -0.37339618633240    0.02090965040425
H          -1.80594522483299    0.77998627200410   -0.97688860945515
O           0.06681689776775    3.13754207070159   -0.81310295110439
H          -0.44549257112728    3.83863480167766   -1.21881050908088
H          -0.01789131524909    2.36389734135847   -1.39427847084657
O          -0.76548857694907    2.01338389864827    1.52240639299805
H          -1.46485423166570    1.49855211401866    1.05961306264312
H          -0.40366303005471    2.58824281178145    0.81951518529375
O           0.78922916357835   -2.32069164998221    2.13176499447667
H           1.14481659792663   -2.58667127936674    1.25034173142940
H          -0.09388422733644   -2.69174881346903    2.17364011620186
N           1.17779759661096    0.28595296819189    1.71916118889876
H           1.32706488771155    0.05935238604861    0.69779768277913
H           0.36466646073534    0.99280524552781    1.76367342559516
H           0.95039492594645   -0.64328824474914    2.14151879393769
H           2.02182295190930    0.67225794231656    2.12722800268132
