    26
        -50.46659342  Gyration_radius:  2.52844295611 Dipole_moment: 2.811
 S          -0.76492428481952   -1.63152265379166   -0.96053345021097
O          -1.41259129429254   -1.43267535941164    0.32919616194495
O           0.56785914128765   -2.17099233131873   -0.86458563847634
O          -0.82862262108201   -0.41338809389104   -1.76206297431873
O          -1.63612153180073   -2.70908662319004   -1.72629154304573
H          -2.49232084541741   -2.29499157154520   -1.73341719417121
H           0.79049481341150    0.02556784398874   -1.72982832905498
O           1.72020625998234    0.30760722674236   -1.60687213685066
H           2.23248027558906   -0.48617867240907   -1.77651591037314
O          -0.72122736082010    2.26720716848177   -1.48131478141484
H           0.23041745679526    2.35653218423304   -1.58007835816396
H          -0.90377564721625    1.32402221143681   -1.64863831640691
O          -1.80144999882582    2.71273575447808    0.88909429309105
H          -2.74711707831372    2.69673264663612    0.73525815399996
H          -1.38154407939906    2.67855295077007   -0.00580308174315
O           1.99918933379470    0.63117369132672    1.05532663873621
H           1.97549022914858    0.64301179433929    0.07412493354646
H           2.16296298375140   -0.30213422895333    1.29472460376449
O           1.80499632431740   -2.01780711531203    1.46034465759345
H           1.28939804044493   -2.13039171213971    0.63097714640021
H           2.42156934512081   -2.75059166594431    1.48678700029919
N          -0.50985003906386    0.54461420222037    1.80103056619662
H          -1.04718285026755    1.41009338691067    1.55283266967946
H          -0.88634653404699   -0.27066650592076    1.24059998017679
H           0.52222679144028    0.67233780568650    1.53400874140176
H          -0.58421683975583    0.34023764648703    2.79163616741835
