    26
        -50.46326275  Gyration_radius:  2.54753599737 Dipole_moment: 2.715
 S          -0.72349556672905   -2.12936312834885   -0.60138750780135
O          -1.66162873618844   -1.42953245937463    0.26866827954271
O           0.13573720080626   -3.03745790077162    0.11443201902648
O          -0.02264536494762   -1.18580206456626   -1.46673926849459
O          -1.60047395382458   -3.02284663146588   -1.58310523811311
H          -1.65895891613959   -3.83953331310050   -1.09841109921277
H          -0.71717205103685    0.24113279407588   -1.51931500338750
O          -1.04242763110622    1.17655213102757   -1.60351551583316
H          -1.60061124186759    1.18783556689448   -2.38201319542149
O           1.33452792029403    2.23735557363509   -0.69263490157201
H           2.05242065391173    2.09488843818265   -1.31164254903554
H           0.53622424118014    1.86608330007700   -1.11044070978104
O          -1.32651334307895    2.59387484172109    0.71581802529453
H          -1.45194411912935    2.13402685365239   -0.13480497466001
H          -0.49348443133161    3.06664382107757    0.62378585588417
O           1.85248508013584    0.54429332158742    1.41471988512977
H           1.78420730633371    1.25663086771644    0.75184100474550
H           2.14618776245967   -0.24845877420179    0.90213461811626
O           2.30277348817211   -1.49824605213572   -0.20892559466608
H           1.89755757659770   -2.29315205800042    0.16803165535973
H           1.65717928370635   -1.25555690337656   -0.89441727513587
N          -0.68780279058945    0.30338808565936    1.95548427190983
H          -1.05555211061286    1.23237891516894    1.63520858370381
H          -0.94292746414751    0.11334621386738    2.91767154706994
H          -1.09325508959902   -0.43866412961836    1.31170131713720
H           0.37959230667527    0.33018270066345    1.82785576023673
