    26
        -50.47083191  Gyration_radius:  2.45194163037 Dipole_moment: 3.518
 S          -1.05141262694473   -0.87391857828177   -1.58097754010290
O          -0.55232204681628    0.18164344779529   -2.42069589844922
O          -2.10772781742932   -0.45078859012004   -0.66441712469089
O           0.00425261903964   -1.57076348377813   -0.84863216916577
O          -1.70676707478942   -1.94761617238056   -2.54038109612484
H          -2.00869506164953   -2.63022799761324   -1.94914667102539
H           1.20725021480830   -0.44832600918718   -0.96900022467961
O           1.82624037784964    0.31558716173672   -0.99442836865733
H           1.71004653879255    0.68084787850094   -1.87575921583491
O          -1.45951966598729    2.29967723353336   -1.09415502966986
H          -2.29543226594381    1.92216700869997   -0.80931984365574
H          -1.10493107137372    1.64189683059015   -1.72487860621594
O           0.50261583211861    1.98039267399765    0.69604357642752
H           1.09487504692809    1.47037437737951    0.10482287407850
H          -0.17825755860050    2.34700313800549    0.09063161823205
O           0.71725430610456   -1.94766625750097    1.74654591946880
H           1.57247933425701   -1.47306313363108    1.79995229835615
H           0.56596415800235   -2.09466748024721    0.79705452112097
O           2.77380805448673   -0.18448897641387    1.56126257943636
H           2.57325023426244    0.68095382484749    1.92531162823039
H           2.74210128897253   -0.08033519436254    0.59918142300463
N          -0.98256705331285    0.04095023210738    1.65962797068546
H          -0.34171576117055   -0.79345131184603    1.85286345810175
H          -1.53048605244865   -0.18555614453296    0.78567893852180
H          -1.59857320357946    0.23764034782101    2.44015743874095
H          -0.37173075553080    0.88173516490913    1.41265755390475
