    26
        -50.46417457  Gyration_radius:  2.48520851121 Dipole_moment: 3.842
 S           0.07747249473651   -0.43349891606841   -2.01569501897842
O           0.57726393628334    0.90164293836669   -1.74419283845888
O          -1.35478430670915   -0.48877645670417   -2.20417527718739
O           0.53442597055352   -1.39139636210311   -1.00844731834005
O           0.73514634546315   -0.88313631814535   -3.38417483201301
H           1.64942841882720   -0.65222019070307   -3.25577357958621
H          -0.91115304289618   -1.80329639473878   -0.26334991479984
O          -1.77383272557475   -1.77105972002688    0.20361384457703
H          -2.40492825559136   -1.62080141502292   -0.50704749262012
O           0.98816668321803    1.64252327329703    0.77867968007935
H           1.81082929038432    1.24236244999488    1.12094006913817
H           0.96203099466262    1.43469304052720   -0.17797230103312
O          -2.02603258220596    1.80300071720431   -1.13056148985098
H          -1.22146362382840    2.28956529232919   -1.33897593976972
H          -1.92712248343047    0.96714777523323   -1.64061383380378
O           0.94878116657126   -1.39044695486403    1.62760717279549
H           0.89038642870024   -1.34170965403139    0.65161598869565
H           0.73481768002972   -2.29756354548655    1.85037736394817
O           3.06013901772698    0.26306814463984    1.91284258349761
H           3.18901187773339    0.47257153674530    2.83904961867995
H           2.41733587850279   -0.47154561120993    1.87913339345193
N          -1.40430206937449    0.69947731714242    1.19376604939458
H          -1.51477297073292   -0.32586418823503    0.98448996619984
H          -1.80821604443211    1.22487979398259    0.36566468478957
H          -1.85975743374060    0.95058743836945    2.06371439145690
H          -0.36887067487200    0.97979599948773    1.19948503974570
