    26
        -50.46730281  Gyration_radius:  2.59689763587 Dipole_moment: 5.524
 S          -1.30399539145258    0.41975446217158    0.27989192906155
O          -0.57693892873093    1.37700081710129    1.08450033831110
O          -0.94361811450950   -0.96546180351410    0.66019763488524
O          -1.08417794075537    0.61066130613515   -1.14862061257953
O          -2.80615337885787    0.60655078281799    0.59060097476561
H          -3.31003067884963   -0.04792234834224    0.03588578583311
H           0.50464990433083    0.78236679168010   -1.54520407830514
O           1.49305721491841    0.77521684022500   -1.53118808466383
H           1.73850093576891    1.54610386830063   -0.99795151595532
O          -1.60992993535436   -2.00871133542156   -1.66929969062656
H          -1.31514597770981   -1.81677374241646   -0.75525563245501
H          -1.40181618012118   -1.19251531805997   -2.14142375571984
O           1.74339125885930    2.41319829233385    0.71365914085346
H           1.68751837046773    3.32097368493101    1.01609220314963
H           0.83421011301547    2.03191223862202    0.86393822963875
O          -3.99311829097305   -1.26972733306171   -0.78135594911509
H          -3.21227275274385   -1.64970479992411   -1.25521353867612
H          -4.28890450977558   -1.94133354477806   -0.16332755729171
O           3.11802477648749    0.45201748304509    1.93371714847816
H           2.63734745714321    1.24524757841131    1.60764462277433
H           4.04708515554318    0.60509394585456    1.75398512436395
N           1.62577966314936   -1.08679271506428    0.29715093170914
H           1.68066459872651   -0.42026431814157   -0.54358855080374
H           2.20110812170613   -0.66661808656190    1.06091931297956
H           0.59495336923359   -1.09784332608659    0.57178823573364
H           1.93981114049725   -2.02242944024469    0.06245733368414
