    26
        -50.46501539  Gyration_radius:  2.5544744524 Dipole_moment: 4.872
 S          -0.73806326743081   -2.06073389786993    0.64296864009130
O          -1.31930741038721   -0.75437998814797    0.86774397986344
O           0.65598775034643   -2.13039292380912    1.06544976257913
O          -0.89830757493801   -2.52646686538317   -0.72444585670960
O          -1.53305888063882   -3.06598000079723    1.56838100338850
H          -1.06512274712756   -3.88274546319903    1.42863505240449
H          -0.24176396528433   -1.55157309486052   -1.77670474265314
O           0.21461850380130   -0.89203262651393   -2.37089719438581
H           0.24355587963287   -1.29714224606501   -3.23909959049674
O          -1.66722110045961    0.87141794557451   -1.25789588307282
H          -1.71199616900671    0.31633988847246   -0.45809542700870
H          -1.08757402797663    0.38543388000244   -1.86086385411366
O          -0.42672396761503    3.11518060487156   -0.56544702899024
H          -0.96341884597289    2.31939122569918   -0.79940666615967
H          -0.45954862602098    3.69605445021441   -1.32542151689879
O          -0.24765488351990    0.95978266517850    2.59433426008718
H          -0.62330429390884    0.25567154309049    2.02546752687048
H          -0.96689913306479    1.57477744738598    2.75240075494138
O           1.51373787234581    1.97090935383531    0.87213874413728
H           0.88788906903536    2.50406875809158    0.33747994143472
H           0.97613700293110    1.66239358794267    1.63852368328668
N           1.90871617273910   -0.29324266313679   -0.29755247672019
H           1.47201170254880   -1.02875786314669    0.33315697725932
H           1.41516259317192   -0.35566880105374   -1.20348967882807
H           1.76357102428876    0.69016352492230    0.16676708205188
H           2.89857734250044   -0.48246845130259   -0.41412750234544
