    26
        -50.47023496  Gyration_radius:  2.48634588803 Dipole_moment: 4.156
 S          -1.54938158478667   -1.07184095874970   -0.01000874282703
O          -1.49128226776435   -0.94937197832648    1.45324150864584
O          -0.81191264743485   -2.20178990086572   -0.50781436414984
O          -1.08631340108990    0.18791056060778   -0.61346878499530
O          -3.04388959459919   -1.24640137325096   -0.41547537517576
H          -3.47403630755525   -0.47384854982660    0.00361339893182
H           0.15773560571154   -0.05636245156907   -1.64463273061498
O           0.96652791608430   -0.19673274586649   -2.19717087621826
H           0.66619330751333   -0.66085092743502   -2.98000429855321
O          -3.33400681522617    0.93506904003217    1.05394204453734
H          -2.81834193051269    1.59342422255254    0.58022639994827
H          -2.69049492126315    0.38005499685328    1.52824451241223
O           2.32902571251935    2.03640878171884   -1.39942812773249
H           1.87422378990750    1.30191475767224   -1.84837340091731
H           3.26151128252817    1.81679038482059   -1.38724781021845
O           0.52510037651778    1.94065885267850    0.63441315575284
H           1.19849443698073    2.17524395498696   -0.03263467084304
H          -0.16356858998812    1.45700337779592    0.13611880790586
O           1.79182964038147   -1.84105106021148   -0.17073157011169
H           0.90166613491278   -2.24313648370175   -0.25584037114996
H           1.83408767213499   -1.26024720276182   -0.95039884174755
N           1.01938849295348   -0.32469969260002    1.83622785164130
H           0.97494761977280    0.67915263595838    1.47258711533941
H           0.01085093310711   -0.64434993265657    1.85684020420811
H           1.49690481492798   -0.93847420547391    1.10873156910733
H           1.45474034425283   -0.39447411241832    2.74904338684459
