    26
        -50.46238754  Gyration_radius:  2.71012918372 Dipole_moment: 5.470
 S           0.73946228956287    0.14970650111294   -2.25413919620047
O          -0.49678243979716   -0.60426111779072   -2.20736969216556
O           1.81583619739239   -0.48411243961928   -1.49434147073638
O           0.58585093125312    1.55094477300159   -1.90175843791978
O           1.19749514942418    0.12179218710798   -3.77510790706777
H           1.94828775093642    0.70714728680507   -3.80000523985687
H           1.25357519023870    1.81460166661813   -0.13418840832450
O           1.68668037018502    1.22243081327395    0.50026110733662
H           2.01727424467298    0.52097777694995   -0.09664312226211
O           0.65056635077747   -1.15047498903255    4.07634587516255
H           0.98742115738819   -2.04905105937307    4.06179150963224
H           1.33968052731670   -0.58838664981257    4.43735050860419
O          -2.58540514159026    0.85606547132786    0.94539626806495
H          -3.42089705983213    0.38771579719809    0.92646383504158
H          -2.42466112412741    1.15731058689499    0.01094590748397
O           0.24528359701551   -2.21556639642751   -0.25125868904196
H           1.08004038424934   -1.83550083954980   -0.58451693580639
H          -0.36292075105115   -1.97062151556218   -0.96901135508943
O          -2.07462932511142    1.41665225367717   -1.57205095555183
H          -1.26418175753665    1.94110394410438   -1.65122525172385
H          -1.77518566834725    0.54997492702807   -1.90478838417028
N          -0.23962368043175   -0.30194267763773    1.54542464249493
H          -0.08941331786378   -0.57024368485036    2.52532249164017
H          -1.18476279923206    0.12625873524449    1.40406927691571
H           0.49940644718167    0.39030370408220    1.24751545064411
H          -0.12839753267748   -1.14282504477281    0.91551819290354
