    26
        -50.46444842  Gyration_radius:  2.59293404447 Dipole_moment: 2.415
 S           2.16746826921880   -1.02602590982518   -0.33067320897297
O           2.11001316436782   -0.44630607908376    1.00778830748550
O           2.17344273068812   -0.01792205360671   -1.36740484737506
O           1.13861970347947   -2.03700574886215   -0.51319106806844
O           3.55271535019083   -1.79552169399979   -0.43557504845840
H           3.36447438333149   -2.63679862953971   -0.03091435214257
H           0.06539692861731   -1.22156777028565   -1.37309321145061
O          -0.50728868070979   -0.57518440932018   -1.86170423833209
H           0.06338080991586   -0.25035197117041   -2.56325947663193
O          -0.30203180226422   -0.63565723810750    1.91564687048033
H          -0.24833189410284   -0.68807894187433    2.87096646214643
H           0.63163641662095   -0.68474782047871    1.58044586122101
O           1.85844140180324    2.16900433755706    0.04816132328848
H           2.08566408243774    1.49171702272988   -0.62769467609525
H           2.19395539356293    1.77699385822375    0.86172167512096
O          -2.51614708547478   -1.09320457168098    0.15295307914705
H          -1.82793429910132   -1.21481559393462    0.82134241198500
H          -2.07380419693795   -1.20676687979323   -0.69592924505767
O          -3.32478280285100    1.50037803679336    0.19432230202689
H          -3.18256055591201    0.52938944663278    0.22823361019665
H          -4.20288648445016    1.63384808165703   -0.16180277722210
N          -0.65045515584596    1.31868647870148    0.05541909978912
H          -0.63876684448935    0.71458483881149    0.90048966009524
H          -0.63502440388880    0.66169075990793   -0.76656786940584
H          -1.53221904389523    1.84725731257190    0.04559680350826
H           0.23702461556890    1.88640513787369    0.04472255272678
