    26
        -50.46575142  Gyration_radius:  2.56872027108 Dipole_moment: 3.681
 S          -0.39950114197446    0.43440799772495   -1.67763546131504
O           0.96170229653112    0.74306776596446   -1.20380026067730
O          -1.35144816266909    1.43811446540529   -1.25419803686673
O          -0.78408560736521   -0.90694633829642   -1.26054602204646
O          -0.36076488299182    0.47027498120068   -3.24019480817145
H           0.43119993078744   -0.04567921431058   -3.48165290361958
H           0.28067488864002   -1.41675750594536   -0.15392340959568
O           0.94737536880464   -1.44296335111326    0.58037992335635
H           1.69207953282188   -0.94575105062317    0.22945229640436
O          -2.72636733836439    0.01571045396467    0.48039797674755
H          -2.55776158744962   -0.82735064984750    0.04400928393707
H          -2.41458899639631    0.67032714478697   -0.18269115386736
O           0.29581222258591    2.49789977446226    0.67070680325977
H          -0.49605052686997    2.81255143727126    0.21947035397830
H           0.72673670665700    1.94108896050849   -0.01183322039767
O           2.11696004869991   -0.51417232123712   -3.18434732698519
H           2.76491671306774    0.03344053742713   -3.63277665463251
H           1.90230006132596   -0.06167101735563   -2.34190124674705
O           0.43476274698500   -1.85701571342168    3.38648398048718
H           0.56076858374601   -2.66602970029548    3.88324402259240
H           0.73418120561013   -2.03672050727065    2.48542282864727
N          -0.55715404984285    0.34409889460464    1.96064818073601
H           0.07211665825696   -0.36516017434606    1.51087408506560
H          -0.54036385957584    0.18689022972938    2.96538864358892
H          -0.21212407289017    1.29718198432397    1.66646299049344
H          -1.52137672810433    0.20116291667673    1.54255914561986
