    26
        -50.46081928  Gyration_radius:  2.68830909739 Dipole_moment: 2.328
 S           2.24777487637710   -0.63501364554625   -1.32055654535421
O           2.34569402358335   -0.44292287032022    0.11493087200700
O           1.92504884702754    0.60423189607953   -2.01866618246873
O           1.35308238356689   -1.71980885636919   -1.68248584781980
O           3.70074240417980   -1.05857923092308   -1.80701544927118
H           3.59710419555369   -1.12665227896541   -2.75175378996557
H           1.35222515767923   -1.98628383407584    2.51033973911632
O          -0.82840683541339   -1.49860377406113   -0.26973560505990
H          -0.11674974268137   -1.74600621961025   -0.90747921220608
O          -0.35755741529732    0.97349143227425    2.20250704306094
H           0.06891520362593    0.09047288527474    2.20539082050291
H          -0.11576368609965    1.40108557661052    3.02432563950798
O          -2.63049862191175    2.15426062936214   -1.03296420458616
H          -2.88060553588738    1.55471656755324   -0.29397461157549
H          -3.22554919770739    1.95943915395905   -1.75765481891299
O           0.82787865473109   -1.43312525236738    1.93004977778093
H          -0.44615303770570   -1.71194524037053    0.59633756112776
H           1.45766112128563   -1.09370630710430    1.23306879850835
O          -2.78036033085352    0.28484182193047    0.89588720259425
H          -2.08292818815557    0.57548691080397    1.50306371258178
H          -2.44373793223287   -0.51822734653886    0.47850313480440
N          -0.18780110928186    1.10027987907184   -0.57891753168174
H          -0.97180544771034    1.67815793013774   -0.94545817978182
H           0.66654153131961    1.08277111924084   -1.20160799148169
H           0.04579355783237    1.40866895309320    0.37159083464865
H          -0.52054489580369    0.10297009087643   -0.49772518610175
