    26
        -50.43726697  Gyration_radius:  2.60732828299 Dipole_moment: 2.705
 S           2.28703410391665   -0.81849462704866   -0.31575555284720
O           1.07133331004948   -1.57971552401683   -0.44021414872852
O           2.58041164642814   -0.23603960833222    0.94196234102042
O           2.32536410828868    0.23358788004582   -1.42248287997976
O           3.47144352125310   -1.78989389796023   -0.68886831782670
H           3.13274688248811   -2.44408287327002   -1.29689020932664
H           1.47667650019525    0.09468049687580   -2.02700167927343
O          -1.05599711816087    1.66752850194135   -1.31029867796688
H          -1.09101350890218    2.56015688729882   -1.65528543779996
O          -1.15966176287420   -1.97714578756696    1.15462672050598
H          -0.32763187182340   -1.93047581905129    0.66348842711915
H          -1.83824007727717   -1.60325048851507    0.56362078314997
O          -1.44612662354563    0.21684411578861    2.65275677225668
H          -1.30222045939425   -0.64914441511129    2.19970225449524
H          -1.33432424616649    0.04573804798791    3.58814034032941
O           0.19361213122672   -0.22453230960165   -2.61678090000427
H          -0.36581295209336    0.51069883421845   -2.24951086817073
H          -0.00968189806500   -0.99597779324466   -2.07053347470412
O          -2.80324410627585   -0.12682592696209   -0.04593567471687
H          -2.80399661425761    0.25029498024275    0.84009601711504
H          -2.31071472319690    0.50020014951048   -0.59519998271962
N           0.32978058756530    1.67189527666921    0.89156077366948
H           1.15628826596483    1.08155532816601    0.87094173596981
H          -0.30179503208648    1.26645077277095    1.58609108373882
H           0.61588928898539    2.57869878536144    1.24038030089571
H          -0.49011933222293    1.69724902381195   -0.45860976619053
