    26
        -50.46441212  Gyration_radius:  2.58389043149 Dipole_moment: 4.958
 S           0.95658477102091   -1.18250367269347   -0.99614870581063
O           0.35777909499852   -0.28731251777092   -1.96773357082300
O          -0.05894347733654   -1.92863493690692   -0.24705360528583
O           1.85578194649130   -0.48566856416511   -0.08105394558182
O           1.80019497548923   -2.22761385090928   -1.80023274585063
H           2.21465179161305   -2.76383762296860   -1.09780918994094
H           1.47158848175991    1.13415557516988   -0.20307782655109
O           0.95273586685459    1.91179834324483   -0.51738644005420
H           0.76568948592930    1.66734915120561   -1.43394425960207
O           2.34072093599213   -3.01342375389057    0.67704624687369
H           1.39380281756117   -3.15393020749699    0.78573679884974
H           2.45736525926077   -2.05194628402476    0.74687711780641
O          -0.77032590145296    3.90392054350140    0.68312633451587
H          -0.57340895101276    4.83287129928965    0.80823386440134
H           0.01307569168927    3.50693928720717    0.27896466786533
O          -2.18630232720100   -0.42802706189601   -1.36209104522266
H          -1.30927741855356   -0.33767062761662   -1.80003350674492
H          -2.13214473150304   -1.29940298724285   -0.95594339675605
O          -0.80200901620209   -0.91359119786778    2.04583534852378
H          -1.32581190399160   -1.59111820413930    2.47580282264160
H          -0.45109134020386   -1.31798535586906    1.21379792586074
N          -1.42050324715213    1.21773762228571    0.56463152156077
H          -1.91680774106086    0.68488701934046   -0.20338497967300
H          -0.47558291207183    1.49421982350829    0.18504296782212
H          -1.89108779812214    2.07578023314645    0.84809611313856
H          -1.26667433279911    0.55300795755004    1.35270149803347
