    26
        -50.44938243  Gyration_radius:  2.46414436026 Dipole_moment: 4.821
 S          -0.64319404306192    1.79865100237478    0.03374733765548
O          -2.06712495100843    1.82084584867071    0.08390698067646
O          -0.07893481097433    1.20587199152929   -1.15399424464409
O          -0.07104507421429    1.06638548918772    1.27840451682218
O          -0.06276065781280    3.19735736219214    0.23555977170112
H           0.92560662152834    3.04099520176314    0.39405373854887
H          -0.45644802783148    0.16112849244246    1.46491276014652
O           0.88451356054871   -2.29454038940684    0.12056623664568
H           1.06264721779946   -3.23196844151447    0.03512564638672
O          -2.89736397711316   -0.81458761293162   -0.05091070285157
H          -2.51530736718521   -1.09337407740306    0.78758146603493
H          -2.80914172466350    0.15081379738374   -0.07508366511377
O           2.26192779377274    0.15014997740616   -0.43879270874610
H           1.44665820735994    0.46875154984978   -0.86850072687870
H           2.02590861266760   -0.71117933928255   -0.06937016200706
O          -0.80679006019615   -1.33240529593082    1.87431375773690
H          -0.46842310224701   -1.46417379540671    2.76241524475868
H          -0.16831214097734   -1.77703802132076    1.25281350657755
O           2.41058415670453    2.61331882554311    0.52366993156658
H           2.44631730173424    1.64663423008973    0.31867319474061
H           2.93925544218751    3.04494541464103   -0.15194318251449
N          -0.72259465905853   -1.54404258649500   -1.76901229750024
H          -0.45836874201810   -0.57353061159958   -1.91891510199520
H          -0.83479321880568   -1.98420573740626   -2.67318897046256
H           0.29544701683813   -2.03886548580299   -0.68055311023492
H          -1.63826338398239   -1.50593775856875   -1.31547919705033
