    26
        -50.46885456  Gyration_radius:  2.54392810288 Dipole_moment: 1.962
 S           0.50056050990878   -1.60862502034900   -1.11515580798977
O           0.06213101908280   -2.75621068569801   -0.36485104480237
O           1.39538994268392   -0.72295342505332   -0.38464838704930
O          -0.60798742077256   -0.85948149830244   -1.70701755634898
O           1.36089013106017   -2.16191618498494   -2.33051181552704
H           0.98221224038441   -3.01880973944312   -2.50025417425025
H          -1.76140341857918   -0.35218926292175   -0.69105582097780
O          -2.33284334662087    0.05698978010993    0.00607271506035
H          -3.09113451628940    0.42650425199813   -0.44888119853989
O           1.07630930553189    1.13484337359534   -2.32582030000088
H           0.29434925821912    0.55918983488388   -2.36878131272625
H           1.69596462938088    0.60807350044008   -1.80364629726743
O           0.65552305401624    3.18992459276537   -0.66441843080408
H           0.76926426309873    2.52274496328169   -1.38342403161092
H           1.38599207234011    3.80317758088078   -0.75054290218306
O           0.25748930215016    0.01208559475265    3.34607206154293
H          -0.28156320045531   -0.70577292460465    2.93854778419689
H           1.09475125278922   -0.39182657598721    3.57887977540139
O          -1.09376383178346   -1.73471836803644    1.84165886487867
H          -0.63220130300798   -2.22135423475262    1.13253241986656
H          -1.81140311743957   -1.26369681419704    1.40207377019095
N           0.01615728828534    1.12316325081493    0.93291090716511
H           0.60638626528718    0.41007939103494    0.43164332745322
H          -0.97083578459410    0.91162219104227    0.69851983340477
H           0.16201780844959    0.97490891003058    1.95609094695923
H           0.26774756687502    2.06424751869763    0.57400668395511
