    26
        -50.46711551  Gyration_radius:  2.57481664824 Dipole_moment: 2.793
 S          -1.08269799334890   -0.64671156320916    0.73451446628981
O          -1.08784798529082   -1.42697687146175   -0.50878923356668
O          -1.39307499365679    0.74583821165845    0.48916296096577
O           0.19173390951053   -0.80349480859427    1.42571514458494
O          -2.20952042392177   -1.21912254657120    1.64969285717627
H          -2.08048983969770   -2.18846512441662    1.61881821040524
H           1.29902844672024   -0.97970672487299    0.17802198623391
O           1.75729027338978   -0.89254594090718   -0.68644793668002
H           1.29546972000846   -1.49651132489752   -1.27386581404938
O           1.67388274399353    1.31696957662888    2.10195441096668
H           1.03064469798962    0.60127226992775    1.91876143239296
H           2.50696117201039    0.87220371661377    2.26973190077679
O           1.72186023292864    3.36109132539262    0.36903384132709
H           1.14882294552429    4.03641680282607    0.73576558871433
H           1.78299040739531    2.66203076165224    1.06002403316613
O          -1.63318457432069   -3.65169724588930    0.77041566521697
H          -1.31325030902699   -2.99511712380451    0.11857641914249
H          -2.34493637928406   -4.13656233658684    0.34670721011032
O          -1.03846654550364    0.06259076699230   -2.76209828083654
H          -1.92301925005816    0.05368529656880   -3.12909023176930
H          -1.07670782191598   -0.50651899664430   -1.96752860845896
N           0.56815200660405    1.47272256834316   -1.11321772776761
H           1.06170535948145    2.33299355144709   -0.78268760619871
H           1.19440882795148    0.63156354582079   -1.02712394449410
H          -0.25013092669404    1.29117876727753   -0.46958416775210
H           0.20037628926067    1.50287342669643   -2.06646259596766
