    26
        -50.45133718  Gyration_radius:  2.77670530501 Dipole_moment: 4.473
 S          -2.16239671488643   -1.38550573111257    0.22982381368548
O          -2.38224627432238   -0.31617099693282   -0.71736898988115
O          -2.37047519237183   -0.93450188065460    1.61439339732821
O          -0.88912890807150   -2.06098304252377    0.08240212004126
O          -3.28115517830992   -2.47366390750520   -0.04272387104162
H          -2.95560165742746   -3.22238698516194    0.44735333302593
H           0.38977408938714   -1.12684513523754    0.52240182352207
O           1.08837674796017   -0.49535455022040    0.81213519485630
H           1.93215065992108   -0.88159555259269    0.48100949432952
O          -1.60247012000533    2.10262049050625   -0.29937406672463
H          -1.90727679003299    1.18357643127462   -0.53454715299773
H          -2.31764411085795    2.68743992955494   -0.55336868057149
O           1.14355775510836    1.66704055631822   -0.84852863808981
H           1.14274750613402    0.89333069685695   -0.25025715606699
H           0.21716636210316    1.91158379122349   -0.95768372690366
O           3.11479596086675   -1.52712994933878   -0.57949512707853
H           2.72308121422532   -2.31751417856022   -0.95597248433726
H           3.11261444057818   -0.85887734047809   -1.30103893060913
O           2.90519798914698    0.41112094354811   -2.45290238672668
H           3.66469166784479    0.99209637902685   -2.51546646836874
H           2.20705897239028    0.92994714739649   -1.99843947568002
N          -0.74320396969303    0.99402747360879    1.99325701638462
H           0.16149619901362    0.54390207074602    1.73560313207442
H          -1.01178706884358    1.65966888293582    1.23689616509593
H          -1.47554478827971    0.18855918070628    1.94694005858234
H          -0.70377878001692    1.43561526434268    2.90495160496189
