    26
        -50.46508860  Gyration_radius:  2.48343417347 Dipole_moment: 2.918
 S           1.74855283558230    0.38138500173697   -1.13323175882298
O           1.04714680181090    1.51337961990109   -0.54434822890490
O           0.82193775597261   -0.60687198797697   -1.64972487468529
O           2.74430244715148   -0.16479012680376   -0.23287096312397
O           2.53321241100800    0.93944658972115   -2.39118348441585
H           3.22390106893087    1.45730833556950   -1.99056050897699
H           2.14604333831473   -0.54063893815295    1.22085916023739
O           1.70471935051883   -0.81816035361626    2.06307797347110
H           2.40757810848545   -1.12950524034686    2.63545749439641
O           0.36870172679904   -2.52446625963385    0.20663327807307
H           0.64143274091275   -1.99362621713128   -0.56260615805569
H           0.85472773262657   -2.15966977656004    0.95989576509895
O          -2.66818624855850    1.94036291328064    0.41168153698117
H          -3.56961244019988    1.61555338931693    0.41968037859605
H          -2.25254002978900    1.55020094003794   -0.37573350796298
O          -1.96566811238638   -1.29803541550697    0.38851387605164
H          -2.11072596648342   -0.95411319039477   -0.50234661033970
H          -1.22735202685998   -1.95009586304009    0.31162711607690
O          -1.58290985566781    0.47740169008270   -1.74632827242423
H          -0.67152495359606    0.10645491997128   -1.72778502522834
H          -1.65830203597236    0.93085938575078   -2.58690650488011
N          -0.50570765994418    0.65196435379792    1.39179287907667
H           0.06038254889332    1.04749738474852    0.58910296220433
H           0.15833495995412    0.26496064294672    2.07059683770181
H          -1.10608012335431    1.39432287157329    1.75143089737870
H          -1.14236438415323   -0.13112468927301    1.02327575247502
