    26
        -50.46615254  Gyration_radius:  2.53515921039 Dipole_moment: 2.657
 S           0.94121427922639    0.10264007763087   -0.50284741265051
O           0.82996730266529    1.34086443196275    0.26616306472576
O           0.18085397423381    0.18668074602624   -1.74416876585616
O           0.51088449303655   -1.04142117128361    0.30032922978760
O           2.42564502176708   -0.10207560449695   -0.88642622235081
H           2.83424127659198   -0.51595559994884   -0.06955798519934
H          -0.73269876936402   -2.17673239889930    0.12741919985047
O          -1.52100841362487   -2.72040031641315   -0.09197226542267
H          -1.18907824960622   -3.49852309438228   -0.54158593456531
O           2.32502995102876    1.24276707538437    2.44427549609589
H           2.90085461225765    2.00886823500094    2.45660807498528
H           1.73287496281795    1.35946829059967    1.66892730611838
O          -1.89450775352333    1.79071065675651   -2.71685943941777
H          -1.71567326707596    2.73002247834896   -2.77561304835651
H          -1.03598958853972    1.36265104181207   -2.58011498383724
O          -1.52033708017089    0.89138413930067    1.36193093834208
H          -0.66200515305507    1.20375198342443    0.99513998393628
H          -1.28671845277909    0.21944092088732    2.00723068146406
O           2.97167745165829   -1.14168304649063    1.39437514207886
H           2.06104124063148   -1.46468266373951    1.31783717656826
H           2.91076508157812   -0.34843276899884    1.96656389569306
N          -2.25669063851309   -0.29507370987548   -0.88904612718978
H          -1.30568920731982   -0.16117260177755   -1.33589631613137
H          -2.17972156958897    0.21508643592976    0.03385407731579
H          -2.95768915257343    0.12176630934525   -1.49775362206502
H          -2.36724232109100   -1.30994986205816   -0.70881212775779
