    26
        -50.46608139  Gyration_radius:  2.56894926793 Dipole_moment: 1.979
 S          -1.08729857429076   -1.85696937948821    0.12514040026771
O          -0.81216008172763   -1.29954464055378   -1.18040805573911
O          -2.42455402865545   -1.55805758737647    0.61515745440624
O          -0.06839393635368   -1.50485695872090    1.11057067899617
O          -1.01890500955811   -3.43139808472139   -0.04322363185571
H          -1.39546836327382   -3.75457496065417    0.76942176955211
H           1.33466089774119   -1.28283876277137    0.14840792994402
O           1.79368248468909   -1.02228548539019   -0.67526241877095
H           1.13416477036074   -1.23243644773121   -1.35127316182313
O          -1.23804667249460    1.32322482436735   -1.60222311966535
H          -1.13663044377857    0.35430017402427   -1.67954606209103
H          -0.35963457288457    1.64300493090476   -1.32896402926759
O           1.19628119857481    1.61702865455679   -0.36089812480193
H           2.04973043350736    2.04822395865106   -0.47288587353226
H           1.39779661246867    0.66553488721455   -0.50203084121023
O          -0.09838519108458    1.04387418174216    1.97138513223932
H           0.46893227841858    1.42069718312503    1.27067633549621
H          -0.01181414220013    0.07592610430480    1.86401016256718
O           3.90383091357190    0.89492242669610   -0.76844457730756
H           4.81975720924139    0.61985944924282   -0.72214068446335
H           3.37298207785056    0.08544854907391   -0.78536240592398
N          -2.39822498850686    1.05400841041633    0.73067573071183
H          -2.07796875140851    1.31240470636281   -0.25352269215933
H          -2.57647863034787    0.01212158003146    0.72048996281388
H          -1.55453453904543    1.19531752794347    1.37081573487025
H          -3.21332093924839    1.57706476078350    1.02943438858282
