    26
        -50.46825964  Gyration_radius:  2.5116325495 Dipole_moment: 5.415
 S           0.89948192099980   -0.61687867618732   -0.45350862843357
O           1.20925493282661    0.64057051102225   -1.08966752472132
O          -0.44440687215738   -1.08670595739081   -0.86100653486335
O           0.96707420434025   -0.53213305031882    1.00568981605871
O           1.92553417879404   -1.65923184388179   -0.94372739729442
H           1.70411702074739   -2.54317534556808   -0.54134312179790
H           0.03896412655740    0.61391054542084    1.59236751214229
O          -0.62777102026853    1.29929794309013    1.87612887877538
H          -0.87291735974733    1.07621921636258    2.77553946321463
O          -0.74307106138452   -2.57820987023764    1.30076914631049
H          -0.91253618141648   -2.14254636963336    0.44343847139428
H          -0.10610308233134   -1.97701402640513    1.71448111794529
O           1.15030844772970   -3.94055048560292    0.05140119682876
H           0.74340793941326   -4.46026717595626   -0.64490915298381
H           0.41712189095109   -3.62256404015852    0.63363379517483
O           1.10245546896786    2.96677184479606    0.32548316560780
H           0.58145433289443    2.69508071567545    1.08976723565024
H           1.41905558941786    2.13693847761899   -0.07344953598069
O          -0.29211781689895    2.79504308564854   -1.94081537905526
H           0.33308396459537    2.11540098160056   -2.23053734908671
H           0.17357281205600    3.20367883145335   -1.17691259906760
N          -1.76811051387746    1.12875819985797   -0.57084693282002
H          -1.54789487485394    1.32408422264555    0.42688635227358
H          -1.31495896576682    0.18741046100168   -0.78845536847778
H          -2.76825588173576    1.11136015534144   -0.73977472747706
H          -1.26674322006500    1.86475164986197   -1.18063190928242
