    26
        -50.45808679  Gyration_radius:  2.62085735296 Dipole_moment: 3.633
 S          -1.36764948242704   -0.33499265571657   -1.69069740416915
O          -1.60492088928065    0.81270694928220   -0.85748459247492
O          -1.57555401673859   -1.61220209297447   -1.01120258632387
O          -0.04941056794808   -0.30727492021902   -2.32408046179864
O          -2.43277831055895   -0.29971569514370   -2.86234207145206
H          -2.39513510195743   -1.19135102678741   -3.19347093602461
H           1.23570229074150   -1.03356643479339   -1.59923285448779
O           1.97445439643742   -1.41601510252463   -1.06485779726660
H           2.29108092143620   -2.17518704101195   -1.55573826563220
O          -0.66942117363026    1.06490883017701    1.60469407231003
H          -1.19968076029558    1.08892537095500    0.78126531110296
H           0.01426498838360    1.76370838244469    1.47244759776576
O           1.11392008921186    2.86701452954007    0.82752520645520
H           1.36077353843288    2.43114574682377   -0.01977217493766
H           0.68759220610547    3.68895715452205    0.58011241148570
O           1.67069142105718    1.58199069707480   -1.45616393348776
H           2.35180025338950    0.92185063655931   -1.29860323839745
H           0.91958461816652    1.08723338705006   -1.83347930708334
O          -0.77337139502307   -1.05573140039930    3.51422529360998
H          -1.30112333776187   -1.03221720734544    4.31275821679921
H          -0.87356946302911   -0.18968996431135    3.09226224034958
N           0.14619284745130   -1.35397141394012    0.92737181818866
H           1.04766430710144   -1.45780901445488    0.42927510029666
H          -0.61982376154465   -1.58556761539331    0.23133920314509
H           0.07499532738507   -1.91816286568198    1.77407869308013
H          -0.02627894503938   -0.34498724374208    1.21977043896650
