    26
        -50.46859148  Gyration_radius:  2.46506719513 Dipole_moment: 3.454
 S          -0.30477765985613   -0.69623468995044    1.15164100034788
O          -1.33250965816649   -0.09463563343769    1.98986009424861
O           0.90237536110828    0.12683668230365    1.10483683283113
O          -0.81529028125134   -0.93286018503256   -0.20261735697451
O           0.05916618615270   -2.05865272403306    1.77398322018918
H           0.85228512558664   -2.37414325209095    1.25270091106007
H          -1.88323191851617   -0.01744346533090   -1.03841771141480
O          -2.57476450207211    0.59606124788775   -1.39012864740980
H          -3.34498874168372    0.05026650049683   -1.55548441416245
O           1.10696218229567   -1.70398810992478   -1.86726106802135
H           0.28422053535952   -1.46787537850636   -1.39306560807041
H           1.60580501397330   -0.86868885815343   -1.90397686498368
O           2.31745898215197    0.62299311627859   -1.08224848777482
H           3.24432236251322    0.50127874964510   -0.87031283552164
H           1.82673958525964    0.38843464418933   -0.26372514903157
O           0.55033979739074    2.64213412301471    0.39565716064053
H           0.76305107779733    1.77971371251643    0.82042645572401
H           0.95741467661103    2.58388565763973   -0.47462528252818
O           1.99457674512170   -2.88589110283579    0.27919638757955
H           1.91956372121346   -3.83585744524458    0.16955624828697
H           1.74544532324976   -2.48369401214313   -0.60293069412201
N          -2.00075901352471    2.05784936022292    0.74483031171342
H          -1.05319334435332    2.48300248861876    0.54864713406879
H          -1.80029188095268    1.20273152296192    1.36666613184800
H          -2.62774551794461    2.71612230822578    1.19367575406186
H          -2.39217416745666    1.66865474267809   -0.14688353257369
