    26
        -50.45468017  Gyration_radius:  2.51467365538 Dipole_moment: 2.469
 S          -0.87012362452665    0.71165696336979    0.14119594531563
O          -0.45296789933108    2.06766946621843    0.45005763498868
O          -0.35188148504233   -0.25067649490750    1.09181255166524
O          -2.42826030648576    0.63547012706703    0.16623317324673
O          -0.50892292103391    0.34617795144524   -1.24090518917339
O           2.11833953793422    2.17203815197224    0.13627762559599
H           1.14763786954213    2.15414938575620    0.35580230371696
H           2.31411494985672    3.07696944634065   -0.11710289672590
O           0.48360655888170   -2.57732953826377    0.13672049884462
H          -0.22579086475047   -2.66194930291274   -0.52914926235783
H           0.23316621216011   -1.77683432602939    0.64310020675811
O          -1.57501686619807   -2.08326596628577   -1.57596285344085
H          -1.24590397891210   -1.16390998293226   -1.57619493706387
H          -2.45706247522292   -2.04072064519720   -1.20274493385407
O           2.59639194307838   -1.84267355250668   -1.10677190371118
H           2.64195368750893   -2.41979337724294   -1.87197691116245
H           1.80648708502223   -2.17102739757163   -0.55378614043051
O           1.93038238976048    0.47575751788201   -1.74219173615496
H           0.89767313715578    0.42112191122623   -1.64601404968609
H           2.17845547882601    1.14006375304500   -0.99922951656726
H           2.27888361281839   -0.49594184607475   -1.46816981061884
N          -2.15883440966535    1.29291355294265    2.66497616986026
H          -2.62500083188935    0.88606136161886    1.10820688548444
H          -1.68996320449628    2.16928694944429    2.46732925540286
H          -2.60086686723186    1.35528564823882    3.57394889906991
H          -1.43649674770387    0.57950023330482    2.69453898100041
