    26
        -50.47213325  Gyration_radius:  2.44129126444 Dipole_moment: 2.245
 S          -0.12986003369478   -1.31067043680266   -1.58011631910536
O          -1.51251648889174   -0.99348716226696   -1.24925996455937
O           0.57913274275091   -1.97841534699770   -0.52004831785711
O           0.57483305918945   -0.13076971274139   -2.07815751357642
O          -0.19673426282965   -2.32831714194048   -2.79049290324653
H          -0.80098347443271   -1.88520880318109   -3.37558758512333
H          -0.43572120741639    1.18904548578106   -1.83085048744656
O          -1.23536021621080    1.67207869618459   -1.52945692109606
H          -1.89672837411902    0.96646285134876   -1.51675351837410
O          -1.94070093794255   -0.66344019517256    1.35949128405710
H          -1.19064339262976   -1.11498999387339    1.77949993003978
H          -1.88633952483820   -0.89724101282894    0.40768771808960
O           1.49343722797545    1.06248115513019    1.78098025538230
H           1.28694409997504    0.14592917018041    2.04198781697503
H           2.01659236461464    0.97047634558284    0.95661729534278
O           2.63424040686932    0.63352353107057   -0.60194818390253
H           1.91100019344051    0.24860801937474   -1.14061477053520
H           3.08844276739746    1.25558493417298   -1.17212843623317
O           0.60261232695309   -1.51425596384661    2.03176428044707
H           1.04597645496766   -2.24706098826504    2.46130214563924
H           0.65046454156408   -1.70276118399511    1.06130619680558
N          -0.93841132876932    1.75504595685855    1.11093686687808
H          -1.00904069631872    1.89341807806123    0.06614853269854
H          -1.45364589461390    0.84481168752242    1.32020612839340
H           0.08337079849547    1.59237511278231    1.39249413579142
H          -1.34036114138558    2.53677691781822    1.61499233446473
