    26
        -50.46836245  Gyration_radius:  2.53834353556 Dipole_moment: 1.244
 S          -1.00131880981441    0.78779555970083    1.43391934061229
O          -0.33274522626836    1.97005830618540    1.93770775136845
O          -0.20460897721362   -0.41981336940883    1.52737328134845
O          -1.51215914113362    0.97788607721187    0.07981257802648
O          -2.26024235999025    0.57303755826171    2.36879543960244
H          -2.49196255071221    1.47093893823341    2.58042264735520
H          -0.32429933950618    1.41055322569169   -1.12759641946631
O           0.52373846619826    1.40209454482330   -1.61179504422396
H           1.15573431784366    1.82943899932668   -1.01032491395731
O          -2.50909325431971   -1.11099521374340   -1.20369127563679
H          -2.15065068335438   -0.37063489173443   -0.66615061965387
H          -3.00304820375976   -0.69653742992483   -1.91344105136717
O          -0.68271582195527   -2.93454102869353   -1.92114432161069
H          -0.89409254510395   -3.74485998820649   -1.45528956158357
H          -1.41876533655463   -2.31038505305518   -1.72649305572687
O           1.91944471326506    2.13957266683320    0.64464527792816
H           2.36601718371316    2.94151105980588    0.92172952397320
H           1.08333286811420    2.09580851446937    1.17296615924091
O           2.69767512716746   -0.49538464360201    1.12631612285291
H           2.65830092656556    0.45775114538449    0.94595242982700
H           1.93890214975822   -0.66279012782285    1.69744606055059
N           0.90221269885229   -1.08753329635757   -0.78675348268782
H           1.86849646977632   -1.20615976463215   -0.45020030066661
H           0.33491588228999   -0.93556838856137    0.08470497234363
H           0.82570820206251   -0.18690303390719   -1.33269597839224
H           0.51122321401163   -1.89434036622290   -1.31621558009515
