    26
        -50.44984665  Gyration_radius:  2.47244307083 Dipole_moment: 3.308
 S           0.39685689257888    0.18384057424034   -1.90861646773589
O           0.27199613629028    1.49290429189370   -2.46830560275294
O          -0.74989382386122   -0.67609760203388   -2.03631162224929
O           0.76550589377767    0.29362475291474   -0.41362092423140
O           1.64661640177661   -0.51576807533631   -2.46588015658096
H           1.62512291891126   -1.39670208099442   -1.98848874387883
H           0.05579216133591    0.78487920711821    0.14849132780388
O           0.38165767353337   -1.92328213818353    1.53605942303499
H           0.23331830716243   -2.63841637224660    2.15709957245246
O          -0.80466857354964    1.63370668984894    1.04766955095373
H          -0.54360713201708    2.48413967018180    0.63739672337707
H          -0.20995575436134    1.47177807318695    1.81271421273774
O           0.09591244143277    3.48969108291121   -0.65631384957189
H          -0.39553432950517    4.20101320847242   -1.07106672507056
H           0.24767894285721    2.82652640841706   -1.35799165380076
O           1.14723347938866    0.55399129944073    2.51583220965776
H           1.90775681126790    0.80744464283141    1.98873744858148
H           0.92899484612755   -0.35258002668316    2.22686004323715
O           0.98973118770354   -2.56770071327344   -1.07332250394470
H           0.97135863396136   -2.33732966745810   -0.12242250576599
H           0.10565549464946   -2.36032221081184   -1.40448177019822
N          -1.93814483242270   -1.09510044537933    0.55849982498545
H          -2.07045373379231   -0.15858433517301    0.92476690842610
H          -1.71620866610820   -0.99056063335459   -0.43079860486791
H          -0.52211027800310   -1.62513047803747    1.21373469642906
H          -2.82061104911777   -1.58596513251272    0.62975917892919
