    26
        -50.46578645  Gyration_radius:  2.39297058534 Dipole_moment: 8.554
 S          -1.07204766096049   -1.18278771830809   -0.34881584791621
O          -2.02518424343482   -1.17342596788838    0.75957052999711
O           0.26214093960614   -1.53185613840844    0.14458877839200
O          -1.06063850217434    0.11350571587714   -1.02774922072939
O          -1.50927686110035   -2.24801616604539   -1.36621780060193
H          -1.01663665026138   -1.97315372776207   -2.20381495498973
H          -0.88407672901513    1.47955978699371   -0.30563453384731
O          -0.78713410191292    2.31119626193529    0.24445872739926
H          -1.33236130368285    2.97379122302255   -0.18220262684461
O           1.97609338963220   -0.79482511663049   -1.78018128005920
H           1.47109401779166   -1.20970888522555   -1.05866980209995
H           2.13716147678776    0.10935351627174   -1.46371086166259
O          -0.19948929473216   -1.13869131816560   -3.26465571027887
H          -0.59731873482915   -0.30773529320517   -2.97587792689663
H           0.72403750605107   -1.09279193527655   -2.91523760081717
O           1.98365563253168    1.48919775070310   -0.13526641920606
H           2.00485731003494    0.96875162627419    0.67726939365535
H           1.13802333084517    1.95177912250196   -0.12441136913247
O           1.37332888000660   -0.27565061727290    2.08748414531639
H           1.94865386050915   -0.88168770400216    2.55684571866687
H           0.99692542614669   -0.79596301152931    1.32203418322089
N          -1.11758740946617    0.65767714659292    2.30842193726197
H          -0.13501279577938    0.34780928064094    2.48478534232576
H          -1.07211327047863    1.48534010452458    1.66876476747331
H          -1.58600419599270   -0.13772081878479    1.73213463519708
H          -1.62109001608590    0.85605288313303    3.16608780613314
