    26
        -50.46704902  Gyration_radius:  2.49854848174 Dipole_moment: 2.973
 S          -0.49236557372227   -1.66810785084518   -0.69202264523418
O          -1.72751941149456   -1.61709611897490    0.07459085052610
O           0.60618881758173   -2.25761515106598    0.03023125018791
O          -0.14135944151946   -0.30697308111882   -1.16493242374211
O          -0.73585326338107   -2.53349432139901   -1.96675731386342
H          -1.38384425329912   -2.01413450851085   -2.47992478390269
H           1.39028753386005   -0.02173366215195   -0.57726914538522
O           2.26023019705749    0.16080441831590   -0.15414793098723
H           2.80838999588953   -0.59270078353982   -0.38175395610294
O          -1.99289236506084   -0.46651483926402   -3.04840212456102
H          -1.69112455018709   -0.11865269443028   -3.89053531650393
H          -1.37072854328335   -0.14203192563798   -2.37015981849450
O          -0.78930186910389    2.02136731368048    0.11934512662982
H           0.06645172601491    2.47224436256403    0.25098766018773
H          -0.60454931846518    1.29964821319643   -0.50802048624926
O           1.80087706377416    2.77779548573399    0.51743973479393
H           2.13015237136503    1.92956370960376    0.17769811861203
H           2.25063409691022    2.93585984795153    1.34865300576491
O           1.16997768527725   -0.80300406104518    2.17735344971144
H           0.98133106401123   -1.55981098302139    1.58401713925795
H           1.73686476442142   -0.24408288892061    1.61931317487579
N          -1.27276471671669    0.16371843603838    1.90243031556466
H          -1.60496727051200   -0.58686297619899    1.22168821454064
H          -1.16694911723068    1.04843317256617    1.32032411648590
H          -1.91570445599145    0.27838408122367    2.67743268623489
H          -0.31146114619211   -0.15500318474787    2.21242107165669
