    26
        -50.46508962  Gyration_radius:  2.48288009061 Dipole_moment: 2.873
 S          -0.42675579334313   -0.40457209858872   -2.03615735964852
O          -0.84344300157339   -1.37094305664769   -1.02998617627835
O           0.88055238836867    0.14510557693909   -1.73493675900619
O          -1.44430906189055    0.60033177827982   -2.27287668742905
O          -0.25948585835902   -1.20483169519594   -3.39309392700881
H          -1.16117589546577   -1.38883157721554   -3.63560405801299
H          -1.93948337792659    1.33429567359992   -0.92143052438715
O          -2.14561938396555    1.79663341083024   -0.06988349410039
H          -2.84459932111761    2.41985741116541   -0.27375264844762
O           1.99737916197562   -1.33504340280188    0.14299343466725
H           1.56905688226106   -0.81908592586689   -0.57742575112696
H           2.48574967662052   -2.03285953361779   -0.29574362753572
O           0.61829400675951    2.44873635378358   -0.33600183986430
H          -0.34103055992560    2.47134075215679   -0.20986738699495
H           0.77928592327308    1.75158107546939   -0.99632510468268
O           1.42547455587140    0.93252622825384    1.67367469826575
H           1.99020591484994    0.27684478071761    1.24348735487811
H           1.28642750596235    1.64851418556217    1.00740218062226
O           0.58457012183517   -2.16056751984136    2.44859654092968
H           1.25440020506190   -2.02132109463818    3.11956738020269
H           1.02388376724173   -1.99695818776527    1.59742239754966
N          -0.91970579963577   -0.21449978717561    1.32666459816606
H           0.02862652769592    0.24788491349409    1.53127067773756
H          -0.85639939216461   -0.74495474172631    0.41210361008434
H          -1.10407789913289   -0.88735860465603    2.07051180841813
H          -1.63782128330179    0.50817508549681    1.20939066301633
