    26
        -50.47168439  Gyration_radius:  2.41951083204 Dipole_moment: 4.568
 S          -1.84751461987068   -0.14608312741380    0.28061642241961
O          -1.29671803209583    1.18607432615477    0.16250776083065
O          -1.25243186229575   -0.87863413714789    1.39154984496999
O          -1.80032970126878   -0.91223800285802   -0.95364840913019
O          -3.38126356274056    0.03352289925511    0.61555137523360
H          -3.74019985045856   -0.80694355616403    0.35251570297529
H          -0.46441345820278   -1.89702880892894   -0.67656974901120
O           0.33674168772452   -2.40705241730317   -0.44141951614022
H           0.14027987298508   -2.78607174774350    0.41762353234269
O           0.53324525091501    2.78261654628251    1.30267593168313
H          -0.31876094138608    2.45831854846093    0.95889536505929
H           1.07076543380640    2.94141258433075    0.51997218100862
O          -0.13464156032812   -0.54427978825331   -3.09573135500331
H           0.34313870919036   -1.37595552734753   -3.05172223613974
H          -0.87627723122486   -0.63642146693826   -2.47367568843619
O           2.26895707122598   -0.55920730293039   -0.05095300023114
H           1.93807699480475    0.16750503492548   -0.63434650038540
H           1.72044248867213   -1.33607729136161   -0.28617739062836
O           0.91664099786903    1.28436260364343   -1.39095726255954
H           0.68506114555322    0.80056355820086   -2.20637261689865
H           0.08101427497409    1.31137165060184   -0.89049273285961
N           1.02500648421857    0.26387479005744    2.06390673282389
H           0.08404629956651   -0.18731722638541    1.91092112283188
H           1.39090356089022    0.04941921767869    2.98451381166720
H           1.66485076718864   -0.10611678640505    1.26903221728592
H           0.91337979032420    1.30038541763213    1.92178443628274
