    26
        -50.45488103  Gyration_radius:  2.47424973218 Dipole_moment: 0.415
 S          -0.76304773311548    0.64580350420505    0.96287805196403
O          -1.93933764606779    1.61066825051205    0.91007826361784
O           0.29120712749500    1.08839949772436    0.08314500100053
O          -0.31084813028797    0.74159017475709    2.40734958618957
O          -1.21541516865143   -0.69918995329934    0.67194288408917
O           2.84163924921141    1.32303770494983    0.85553994256150
H           1.95922921556329    1.30590812658512    0.43564133759965
H           2.96957707537479    2.21635926849528    1.17918386398089
O           0.90768311034821   -2.28194075638216    0.66218175533322
H           0.08530339469063   -1.75470456287696    0.57856887810210
H           0.63979055645753   -3.15215303077909    0.96429860216643
O          -1.97715994118496   -0.80452501547363   -1.93385510136367
H          -1.87565704324634   -0.99462978641664   -0.98758189732384
H          -1.04889686247929   -0.82742145553340   -2.27154681368909
O          -2.64339831070784    1.64409717369602   -1.50113796891344
H          -2.38988157431837    0.70901974846327   -1.79254830612075
H          -3.59966170430298    1.69749410079951   -1.57125188966436
H          -2.23145363131060    1.69601295417293   -0.07941567810780
O           1.82315285539171   -0.52786946157999    2.46799185984428
H           1.63975060357125   -1.26948296895584    1.84728530915741
H           2.40656418859913    0.09125694378736    1.97033306810451
H           0.60042186185654    0.19449547654595    2.52430865712352
N           0.70129606242925   -0.71953123298643   -2.19149722185650
H           0.70014256128089    0.04677534127693   -1.52236034274100
H           1.31679036944832   -0.46461523647628   -2.95350270169959
H           1.11220950396176   -1.51485481521902   -1.71602912934628
