    26
        -50.45392464  Gyration_radius:  2.42779203889 Dipole_moment: 3.645
 S           0.43571351843037   -0.22613417280277    1.78338197332975
O           0.75209313925972    0.46011516699225    2.98079144764398
O           1.19735477327997    0.15266110569551    0.60294090074114
O          -1.05562103753713   -0.08921900643615    1.48598374218104
O           0.65883044770807   -1.74706946512058    1.99314753568283
H           0.61041085311327   -2.23579425563873    1.12667407233953
H          -1.34332940138870   -0.57874539661775    0.61131196509681
O          -0.11243312311231    0.57759347066904   -1.76410930656618
H           0.43173036329324    0.57771919104685   -0.95934017487298
O           2.15730212106072   -1.26989984014671   -1.50658772169506
H           2.14558435793150   -0.69065284033386   -0.72579156116451
H           1.66527563441276   -0.78872242470193   -2.18220887290672
O           0.29816272219378    2.66873519296099    1.38065554363200
H           0.94712607250864    2.11162220033679    0.94009466464004
H           0.25344707431309    2.32514916318969    2.27881859175560
O           0.57903417413008   -2.96471816316045   -0.32108758440413
H           1.21974549772087   -2.40747882055844   -0.85192103586719
H           0.95667609225413   -3.84451310847442   -0.26470788627412
O          -1.58116491773438   -1.26713033861801   -0.66693437175644
H          -1.11742050543660   -0.61647505222363   -1.26715453166348
H          -1.03843389882210   -2.06802222869473   -0.66131211362675
N          -1.70554304096340    2.48110480220927   -0.78125178987499
H          -0.72267542148644    1.34714008910337   -1.62419488903334
H          -1.11090296770732    2.70089619618740    0.01725662607187
H          -1.98227997126376    3.35607606087182   -1.20810463931978
H          -2.53868256596958    2.03576247427030   -0.41635060402772
