    26
        -50.45661501  Gyration_radius:  2.45402257814 Dipole_moment: 7.555
 S          -2.09569315066557   -0.70577341735740    0.68632129107052
O          -2.77537270937333   -1.69100636044796    1.46264319476354
O          -2.80300042005874    0.52562797643316    0.43373214907258
O          -1.90493554308705   -1.39407579778975   -0.79145493480956
O          -0.70716741559193   -0.46367571526133    1.08781589486838
H           0.20624754567797   -1.62169007192345    0.47207311158127
H          -2.81415386469334   -1.63316915008174   -0.93182745329326
O           0.78889869912029   -2.24269042635203   -0.03440353270179
H           0.18751157217041   -2.73709157075178   -0.59546807791858
O          -0.35098410994441    0.27083432220338   -2.43634057703540
H           0.56650307461147    0.06786986137629   -2.20545034822833
H          -0.89708894387249   -0.38107195966190   -1.97387885642036
O          -0.97829319210668    2.09910119912969   -0.56533325558295
H          -1.69807865995331    1.59768450232086   -0.10996739237784
H          -0.85318481708937    1.62915745315912   -1.41649072712243
O           2.14325284375687   -0.36185237756306   -1.23718349513316
H           2.99106145899787   -0.69627940766510   -1.53135322151511
H           1.68039747888490   -1.12056633941353   -0.78232094907803
O           0.96714682294737    0.52799104460148    2.82893776774367
H           0.18684593000503    0.14839539010156    2.37034271952503
H           1.46873806252952   -0.22294381974163    3.15165872551683
N           1.36586790673303    1.69156072002592    0.42939660723144
H           1.76880859527222    0.96998062784479   -0.19578151407586
H           0.33942901808843    1.88258999399814    0.08142687376730
H           1.30929061686380    1.31316769476608    1.40365811401545
H           1.90795320079412    2.54792562801282    0.39924786613889
