    26
        -50.46255988  Gyration_radius:  2.51456872438 Dipole_moment: 3.507
 S          -1.60353749557958   -0.59237807661179    0.17695060609298
O          -1.57574951892966    0.86008472226742    0.28801894031405
O          -1.25748776611662   -1.23042168696374    1.42107645921707
O          -0.73786711020452   -1.02547026567526   -0.93804121880708
O          -3.05769777249450   -1.02988117562435   -0.19685825601576
H          -3.17894203952076   -0.73972929711548   -1.12080061437723
H           0.44814149877241    0.10807481289751   -1.13980518828887
O           1.20348375391954    0.71670007295009   -1.32207765168264
H           1.09526305487131    0.98492284578019   -2.23641689013340
O           1.80292246737476    2.87927173733049    0.26870473778018
H           1.53395014854337    2.20133392938483   -0.38240579867910
H           2.75979542345801    2.83862566614065    0.31860097769024
O          -2.55240231146831   -0.56970463120335   -2.77822352713660
H          -2.70224246067812   -1.35222838138188   -3.31323982186549
H          -1.72501319386378   -0.72556994714691   -2.27787578825747
O           2.16737041337115   -0.48732023242539    1.07438303433238
H           2.17489096389426   -0.17624463324122    0.16037648746421
H           1.78378862070618   -1.39846869061850    1.03276823114410
O           0.79127969947853   -2.71421148493547    0.68184023430649
H           0.56334871343144   -2.58966816348006   -0.24579244082797
H           0.01193529397660   -2.35559712692774    1.15219081855337
N           0.40630817327136    1.28820339596269    1.90948143814674
H          -0.46784582406942    1.13431902441155    1.31551556803550
H           0.87793445415311    2.13919884438266    1.53880890687314
H           0.16297112624707    1.35798647284993    2.89081630331537
H           1.07540168719738    0.47817225900576    1.72200445276754
