    26
        -50.46255675  Gyration_radius:  2.56787619417 Dipole_moment: 2.237
 S           0.07361644446347   -0.64283910310098   -1.82465516860885
O           1.39757014831509   -0.33897139954051   -1.29966596168649
O          -0.94620382277984    0.13160083007643   -1.12196630168991
O          -0.21751525813840   -2.05071039180568   -1.90160659410816
O           0.03172103795263   -0.08931219821654   -3.31745844195352
H           0.31015590987822   -0.83346015388116   -3.84178305435992
H           0.71805075876614   -2.75764679889375   -0.51049256287343
O           1.40491865174471   -2.57649455607662    0.15347782587699
H           1.82357446597456   -1.77895111484361   -0.20570465205411
O           1.20650553821316    2.60606586823169    1.36803144223890
H           2.13361963911326    2.45061301916055    1.55543727521177
H           1.13086321598415    2.63171448456696    0.38192254199691
O          -3.11629300365158    0.39597439189538    0.58551622341436
H          -4.00393121043410    0.41621631980742    0.22692727055687
H          -2.52014906685069    0.24500127252696   -0.16505864387741
O           0.93689040440577    2.25135775630651   -1.24912535177584
H           0.02093246680710    2.19591157001424   -1.53379700570953
H           1.26394586531410    1.33004269340540   -1.31161391513890
O           0.35375254190523   -1.78241390040011    2.43384263957240
H          -0.29329265524624   -2.44812262534628    2.67194108619354
H           0.82445292486449   -2.13403201540059    1.63333412697574
N          -0.50338022733801    0.56129816006494    1.47848186035558
H          -1.45647945887930    0.78171473560017    1.77167986673471
H          -0.56051889241226    0.37674757297336    0.44739686585173
H           0.15032399877976    1.37147156153102    1.62129580191979
H          -0.16313039665976   -0.31277598868365    1.95364280696234
