    26
        -50.47455454  Gyration_radius:  2.42600538227 Dipole_moment: 3.600
 S          -1.07418353041442    0.03970500040340   -1.09672924553850
O          -1.67332942784259   -0.66942525977212    0.01756495239076
O          -0.08977012274637   -0.76076029055903   -1.81232951231700
O          -0.47012589328779    1.30492068396595   -0.66507926879310
O          -2.23551007541039    0.39004290489640   -2.07660973799792
H          -1.77414275318235    0.82661550695731   -2.81954188928176
H           1.11325750120635    0.77417177296024   -0.35640813983324
O           1.99299783425576    0.39451950320326   -0.16344160010379
H           2.17877319369007   -0.18310776920022   -0.90819413176357
O           0.22429281718681   -2.79289252770451   -0.09758880309773
H          -0.69356933948472   -2.89239240215632    0.16612093220053
H           0.19584343736384   -2.13347487318501   -0.81801047393794
O          -0.20327252355473    1.32883898809687   -3.47975060573741
H           0.05016230853956    1.97237362817746   -2.81055780977026
H           0.11801128511772    0.47193890232732   -3.15320502381830
O           0.02341172226877    2.35097406873223    1.73066200961446
H          -0.26583953937666    2.13476538808714    0.81944808740272
H           0.97211832779835    2.48916837446984    1.67069465901552
O           1.55148112163264   -1.42824623293774    1.78428199781776
H           1.92802764425815   -0.74742394582557    1.18922379665874
H           1.18096730013896   -2.10224038480384    1.17027649370532
N          -0.62578577996313   -0.15456356598694    2.37693404394201
H           0.29465553851875   -0.71798588261348    2.28660986024710
H          -1.16943540887560   -0.36839962774021    1.49826364455390
H          -1.15331344663771   -0.39662604272270    3.20773445137240
H          -0.39572220120347    0.86950410292364    2.33963129305087
