    26
        -50.47096521  Gyration_radius:  2.40553335866 Dipole_moment: 5.280
 S           0.37340313563520    0.49977844447369   -1.25432733410767
O          -0.99617860812238    0.88301571282315   -0.89972178239306
O           0.75487657309218   -0.73312512671889   -0.56020325671435
O           0.41681431242161    0.21274854917151   -2.77264765434598
O           1.30966751789318    1.57264509729427   -0.97030033521697
O          -2.44472413002697   -1.29598023420104   -0.64239831370030
H          -2.10402136430907   -1.62613465315761    0.19667748774708
H          -2.05779924275365   -0.39779062336980   -0.72557332834161
O           2.75424783115286    0.43881160482640    0.86783056383482
H           2.65394133463923   -0.45030944342670    0.50928526411305
H           2.36784902171097    0.99823033519305    0.14808228805343
O          -0.50419765548424   -1.54797238755083    1.50035236490581
H          -0.06644862003603   -1.26436028606128    0.64244531351182
H          -0.16735605624831   -2.42684188927280    1.68318484996271
O          -0.38982328641826    2.59870115617158    0.94707332173720
H           0.37070104545703    2.94798233716963    0.46722683187760
H          -0.82041860630317    2.02268133683477    0.26972969685342
O          -1.15877350065819   -1.85659713286337   -2.88926682948840
H          -1.80625406645073   -1.71597600992053   -3.58367943352299
H          -0.12564737668897   -0.61536346885952   -2.87282476509579
H          -1.65729051530281   -1.78575136762418   -2.03655510414557
N           0.65703229207259    0.70548306993273    2.43183832356201
H           0.77680245461128    0.89066622841024    3.42159241426340
H           0.10608473405360   -0.16663634420366    2.26239320948002
H           0.16422933149930    1.51931181552246    1.93618865614832
H           1.59328342456510    0.59278327940417    1.92359754102343
