    26
        -50.46284568  Gyration_radius:  2.56809066894 Dipole_moment: 1.869
 S          -1.19554321073298   -1.53679149856536    0.73159008108105
O          -1.85703156136461   -1.54555320621647   -0.55037697748752
O          -1.45808838065135   -0.33080681431351    1.50452969948437
O           0.24127033805673   -1.77554951053567    0.61776018912083
O          -1.79136108909574   -2.74193859973719    1.56723448724829
H          -1.42063852646253   -2.62606368507831    2.43775819757299
H           0.49044902538770   -1.16816022985706   -0.87023733288352
O           0.54781968567066   -0.62830853608090   -1.69601278180942
H          -0.17178184950726   -0.94837460143857   -2.24660913322037
O          -2.86520406909619    0.73358770574660   -1.55917847526456
H          -2.56340463747640   -0.13470345584651   -1.22134576007194
H          -3.81555174968142    0.66190622118727   -1.65212412182546
O           1.19623144587151    2.72086726721069    1.14814073690851
H           0.96655508721295    3.03161973845267    2.02481069860900
H           1.60622839362560    1.82763827764697    1.27696645985682
O           2.01087938234704    0.20852461084645    1.35824309354506
H           1.34564335729676   -0.49291061241188    1.25777426572421
H           2.62427610777116    0.07826130643949    0.61086544562850
O           3.25072971703774   -0.44185521541466   -1.00885561191288
H           3.49259503333000   -1.36731638961425   -0.93928362419268
H           2.40646935698966   -0.41547968200759   -1.48244326485069
N          -0.60679087315534    1.40888231882934   -0.27264240095361
H           0.01312601902331    2.14097312518689    0.15544901109363
H          -0.05453902648507    0.79447047283795   -0.90777570061363
H          -0.97159003451171    0.79366453923729    0.50725833094782
H          -1.42074793136407    1.75341647344656   -0.79149551171700
