    26
        -50.45835465  Gyration_radius:  2.52145007852 Dipole_moment: 3.900
 S          -1.11492823055472    0.29749914873911    2.01865779232389
O          -2.24186292478463   -0.15840572805513    1.20770266311011
O          -0.15163376166213    1.02980082187609    1.22162611848183
O          -0.52630257275574   -0.78059031922952    2.78810543608205
O          -1.70248493679254    1.33307657038524    3.06416226504107
H          -2.20647417132548    0.77675861791948    3.65006446164702
H           0.28708230901432   -1.65510220853095    1.69627472097741
O           0.69698693701143   -2.15160731550865    0.94595951550406
H           0.68343036486306   -3.07655060408597    1.19642566714177
O           0.82557517067719    2.61684756908299   -0.71068992812282
H           1.72237635333022    2.27196858397250   -0.65401777816051
H           0.37645681164474    2.26836737272812    0.08006421977849
O          -0.53444782617385    1.13917620831583   -2.40500757619940
H          -1.34226211610394    1.62456079891593   -2.57738070221300
H           0.01730524674375    1.73270962382351   -1.82781465134812
O           1.41675804994724   -0.98812411290598   -2.27467676399685
H           1.15939781914267   -0.26045360096393   -2.84514324743967
H           1.81993154208260   -0.57902960133023   -1.48811913750197
O           2.16845814542031    0.10153294430032    0.16130420795626
H           2.28722503756047   -0.77487733576409    0.53996278895690
H           1.37196334902352    0.44796149676166    0.60497697545527
N          -1.00958933918762   -1.05133111698099   -0.89027787049096
H          -0.73069280472643   -0.24605995965096   -1.51132808604495
H          -1.49968495871057   -1.74916818276087   -1.44162050722278
H          -0.16286047337968   -1.48077574175207   -0.46327344632990
H          -1.60972298028353   -0.68818391919051   -0.08593712748713
