    26
        -50.44957634  Gyration_radius:  2.51769936141 Dipole_moment: 4.580
 S          -1.96185107819426   -0.26579333378195   -0.97542241274389
O          -1.98397522492017    0.47549270357575    0.27757320778814
O          -2.41530877618869   -1.62408319934466   -0.84980536622853
O          -0.67188165106589   -0.12941913915162   -1.64993996695901
O          -2.99185323308661    0.46713003000646   -1.94235011910420
H          -3.82842735866539    0.07660707032945   -1.71034549411992
H           0.14871998229770    1.04285837686803   -1.53186666924864
O           1.58965681125888    0.39509103979513    1.95655571746017
H           1.96495660329160    0.19058462273657    2.81324606184231
O           0.77563361626034    1.84607747582707   -1.27798669393609
H           0.37286485011884    2.15359221096876   -0.32792141520672
H           1.67056113130085    1.42512015948185   -1.04477932980252
O          -0.18190002516064    2.22507277280469    0.98285140928333
H          -0.97443799477698    1.65538837202287    0.82261320314354
H           0.42744809733920    1.67740514423630    1.51663157373205
O           2.91486105844928    0.79091416133548   -0.31484436709561
H           3.65116532609131    1.37796961392610   -0.13569694041764
H           2.51038772699943    0.55876527138412    0.55432252672549
O           0.00007185309416   -2.80712606887250   -1.14723239204959
H           0.34147098864842   -2.12738824195489   -1.73496318578536
H          -0.95309636246014   -2.62050175544577   -1.09625876217285
N          -0.12427857307021   -1.43375651413671    1.36500377671442
H          -0.44261152405296   -2.05943396859753    2.09492385778936
H           0.93535144021147   -0.37492283294403    1.73346305875078
H           0.15692934013589   -2.01689187637777    0.57268201435440
H          -0.93045704385166   -0.89875210467754    1.04954670729005
