    26
        -50.46960859  Gyration_radius:  2.44474443159 Dipole_moment: 5.143
 S          -0.84162703784682   -1.18286232709961   -0.55973929018878
O          -1.94947204164726   -0.26689708651782   -0.78454191716622
O          -0.66632905631795   -1.52726126676749    0.82785650447104
O           0.39865040025684   -0.61201050119529   -1.13609530009654
O          -1.12358311869172   -2.50079715280296   -1.33986798391307
H          -1.07051778730221   -2.23540046663145   -2.27884983961718
H           0.69294224679152    0.96561166825742   -0.77837718808551
O           0.84655586537399    1.90892015647587   -0.52805112648521
H           1.35664202702406    2.29596969843090   -1.24107211873868
O          -0.30401119425347   -1.33133627572887   -3.57073741675363
H           0.09262267922535   -0.87421750900771   -2.80387041978854
H           0.40707167965141   -1.80411410098384   -4.00949391070140
O           1.84388568101326    0.96582651983364    1.96691972627624
H           1.67032761635708    1.47599976750675    1.16441657837541
H           2.12957932522510    0.08339696146959    1.65040063837526
O          -0.62666922794216    0.38963463247988    2.70871006892953
H          -0.70814193483524   -0.45356715279309    2.22168203612425
H           0.33466091136292    0.62377006910370    2.64017372730371
O           2.10903340675836   -1.46087181735813    0.78662625663929
H           1.47139098616419   -1.97966025537164    1.28710761775162
H           1.61588826773298   -1.18675533680209   -0.00500863885137
N          -1.55700202211789    1.77878412997450    0.75851169558319
H          -0.72594764338691    2.20142654685170    0.32052233422186
H          -2.29853464731336    2.45444235225039    0.90307140216282
H          -1.85969856825412    0.98540257687052    0.11378228013908
H          -1.23771679292581    1.28656618956522    1.68592428402837
