    26
        -50.43396009  Gyration_radius:  2.62508763997 Dipole_moment: 6.339
 S          -1.33419702508915   -0.75708058035967   -2.27748745488050
O          -2.36433919175781   -1.00576058708022   -3.21249709609018
O          -1.60918262925100    0.22112607063810   -1.24324103042856
O          -0.02076675819168   -0.32963829699114   -2.98423588512994
O          -0.94240835500764   -2.07946299563368   -1.56482843290882
H           0.06281156611913   -2.08683925129799   -1.38310834476957
H           0.41137643046316    0.39080090699751   -2.41203705975283
O           1.52048624116638   -0.13627187332536    0.72424742987109
H           2.14310967403739   -0.46457446407449    1.37078801279614
O           0.94579719160907    1.39092134703196   -1.37321043679547
H           1.29576197688966    0.88423596571307   -0.60782871822242
H           0.11313738584878    1.76646195769743   -1.06714346017374
O          -1.44366323117995    1.11660428530018    3.03444608769119
H          -2.20287296174051    1.67708945379447    2.86743879212129
H          -0.66648496772900    1.60197523620487    2.68399868392368
O           0.70098088992149    2.15871377141301    1.77735314135734
H           1.06910461368365    1.32969282076454    1.37792524167433
H           1.44272804299211    2.64718506513754    2.13441751809617
O           1.55085549382442   -1.90776716913589   -1.12917725928803
H           1.90142628224306   -1.50804000033258   -1.92860807316120
H           1.61235996199755   -1.20799732206666   -0.39833201272930
N          -0.86980631307532   -0.76827069457891    1.14106293049135
H          -1.05570799544344   -1.75943600906865    1.23177282813853
H          -1.30653840609288   -0.40600666999996    0.27113891219676
H          -1.22047477854946   -0.22793044953865    1.95280871146912
H           0.26650685231047   -0.53973051720968    1.01433696450664
