    26
        -50.46595195  Gyration_radius:  2.57794733932 Dipole_moment: 2.596
 S          -0.38372917383938   -1.16765948557527    1.81588413954576
O          -0.54718784220625   -2.08688782805840    0.69711103644530
O          -0.48578333148580    0.21528900212162    1.34482295250905
O           0.77930756702547   -1.39691151399942    2.63179505161146
O          -1.63731388958939   -1.40349132309748    2.76678873472042
H          -1.23608429737178   -1.41028000255445    3.63024999771263
H           2.08007414740348   -1.50065246832923    1.24264593448028
O           2.04675911930539    0.43755746070770   -1.28002642257415
H           2.81493467378140    0.39824626872722   -1.85080798737371
O          -2.02742733307989   -1.80011525844045   -1.48411809254809
H          -2.09259270736409   -2.65042307727135   -1.92018508345502
H          -1.57600566915197   -1.96802386567136   -0.62724147889550
O          -0.96582684326915    3.17307275529193   -1.09631031736700
H          -1.64028565146434    3.61252532674933   -0.57720470695696
H          -0.18727541375968    3.06433922752522   -0.49674251345287
O           1.00406006760325    2.37804729188154    0.52586485880585
H           0.52723519244817    1.71280681195745    1.04881153951674
H           1.58095851708021    1.86850865510505   -0.06082575609151
O           2.04777757976951   -1.66966531012549    0.28868103547949
H           1.16296752390410   -2.05873774573772    0.18364399794147
H           2.11311042007809   -0.34395252984024   -0.67057821730092
N          -0.68954435232026    0.51744520555266   -1.25667551625115
H          -1.27957470252132   -0.22152355489603   -1.66998599090142
H           0.29680503534006    0.44207633489252   -1.55568747086472
H          -1.01701434828469    1.49280803109179   -1.42252799623584
H          -0.68834426802419    0.36560157201946   -0.20738171846110
