    26
        -50.45427168  Gyration_radius:  2.52690587128 Dipole_moment: 4.806
 S          -1.29781194779933   -0.31769207888010   -2.02299324423681
O          -2.17555256028050   -0.51880007084671   -0.86047750637688
O          -0.71169733606323   -1.54620722041504   -2.47703313022840
O          -0.31448348181180    0.71990481529220   -1.73474835163689
O          -2.21836385617763    0.25061361970817   -3.18307015888858
H          -2.46130368699325    1.12834653015612   -2.89775424733680
H           0.91487937444749   -0.16676073924290   -1.33536838143192
O           1.57125937504024   -0.87010841033309   -1.05962627502837
H           1.73542024305927   -1.35919636916285   -1.86974526283044
O          -1.46786431441773    1.24144961992234    1.10261947216624
H          -1.79677288009671    0.70807611449936    0.35825754099477
H          -0.79638991766994    1.84518494846927    0.73727852790103
O           0.81693152936545    2.77804567329109    0.88079661327413
H           0.78744619944248    3.17075179728689    1.75525861597160
H           1.41354561918532    2.01453965050123    0.93535491019886
O           0.02179571120592   -0.43654491051307    2.45421744999507
H          -0.61229318498943    0.25033667719848    2.10609445947688
H           0.90393946049385   -0.09524956155609    2.24694778038422
O           2.37205904522693    0.45689697047460    1.18181181795860
H           3.32674643434657    0.52214214944751    1.23382361763511
H           2.16809063968968   -0.00715692772952    0.34887440311414
N          -0.43567617055850   -1.98949290303541    0.42885488814643
H          -1.26438881954163   -1.52513196845956   -0.04136477477798
H          -0.59384484447400   -2.98512943680730    0.53684838183832
H           0.37766708294154   -1.79310036587401   -0.19294211423114
H          -0.26333769357323   -1.47571759338762    1.36808498794936
