    26
        -50.46738702  Gyration_radius:  2.47374643695 Dipole_moment: 4.207
 S           1.22570160974022   -0.59365711326755   -0.45921542810402
O           1.72246014035979   -0.05931597243651   -1.71109634240452
O           0.07822095493663   -1.46696786589161   -0.60662625219174
O           0.95479510096145    0.47963658098212    0.50546456588372
O           2.35225513462868   -1.48055271275110    0.19144479138629
H           3.13543816103642   -0.89379262494987    0.20264311215494
H          -0.16042518351278    1.97754715187496   -0.87836027258657
O          -0.32346758462159    1.66207933676585   -1.77142883099383
H           0.41399782810791    1.05086035459286   -1.95770711726618
O           3.75491339840204    0.73341524494780   -0.15634744026313
H           3.20734191854697    1.27814354601418    0.41693599039291
H           3.26049706524735    0.65835402066824   -0.98999256908558
O          -2.74683742520850    0.57711522824381   -2.00114143032787
H          -1.90270446130387    1.08686623805283   -1.97806045194929
H          -2.69147577867164    0.02461183609556   -2.78294860226885
O           0.16086635379326   -1.39918219803341    2.34863433737101
H           0.56909327051590   -0.80591551791522    1.70126553794831
H           0.56981926743380   -2.25286653527041    2.20025677972339
O          -1.19293688338251    1.07433621168562    2.02063865720730
H          -0.37101184817359    1.06515679095869    1.49221762220779
H          -0.98436647876457    0.53317614418226    2.78976439460055
N          -2.23723384359945   -0.66104925626361    0.29680843977614
H          -1.31626667220311   -1.09285784036941   -0.00838055931790
H          -1.99129893704086    0.05810585743102    1.03299260205815
H          -2.62262909460709   -0.18505912676992   -0.56042244862037
H          -2.86474600294221   -1.36818776877875    0.66266092460388
