    26
        -50.46862050  Gyration_radius:  2.50701893855 Dipole_moment: 3.958
 S          -1.09251831075342    0.00756340492119   -0.25956080533212
O          -1.92292776105455   -0.12766532740421   -1.55060892350537
O          -1.85741704583007    0.79351310020878    0.68397827213493
O          -0.79492789681107   -1.32662185537311    0.25319267757169
O           0.16324371577850    0.70122961583051   -0.61743406247451
O           0.92595381003425   -2.66930570394152   -1.28187916661501
H           1.69631761007477   -2.07655477396189   -1.20431917450988
H           0.29954955900317   -2.35328253734184   -0.60146411926243
O          -1.09718109995743    3.04964426717140    1.80718879438626
H          -1.29112274138779    3.76787574416967    1.20311377335357
H          -1.52246892284428    2.24953977343420    1.41681586439876
O          -0.41410570177706   -0.62579269768831    2.73986307601001
H          -0.54696875330119   -1.05635818566769    1.86219811243993
H          -1.27107404051563   -0.24328470600987    2.94871126295896
O           2.48560863876662   -0.42522919357100   -1.28552499393037
H           2.65755464134362   -0.23770216604989   -2.21006236159783
H           1.63517145062785    0.01495033351918   -1.08028519795140
O          -0.44719337243420   -1.50219788334235   -3.15292509352723
H           0.12952513845180   -2.01722043714186   -2.51263339665581
H          -1.00511699292518   -2.15052563047857   -3.58701022003042
H          -1.34653622538387   -0.61952426558984   -2.20973754401199
N           0.96452826024050    1.38404325140224    1.74611304857574
H           0.77870714032169    1.13806002414036    0.72350388850937
H           0.37565268690427    2.22731016593592    1.93467869638929
H           0.54735056346154    0.57356480897842    2.29563437290875
H           1.95039561995320    1.52397086383759    1.93845320977068
