    26
        -50.46652874  Gyration_radius:  2.55272287615 Dipole_moment: 3.950
 S          -1.45454538906896   -0.66946411610498    0.97857243798829
O          -1.00916234786728   -1.23054902630465   -0.30052866258391
O          -1.61285301604056    0.77160366087796    0.89690914993254
O          -0.58189235105066   -1.08783207868599    2.06257352347666
O          -2.88338310628016   -1.25017169868324    1.25523545966133
H          -2.70939364450266   -2.20942357494527    1.30106700446073
H           0.81720221917661   -0.33772042267069    1.69862487036776
O           1.69210566402486    0.05584645004759    1.47498691475200
H           2.28973362941475   -0.24219001675979    2.16352626364801
O           2.36208085862972    0.07435655238442   -1.29423539482188
H           1.55312507688577   -0.04415973902557   -1.81294822526867
H           2.16391039463708   -0.27294796243478   -0.41235776833024
O          -0.22548049752870    0.01683869032785   -2.41084177678042
H          -0.56482936061465   -0.46081098906602   -3.16872882020690
H          -0.53962552216369   -0.48268918648360   -1.60724266701644
O          -1.45780746329886   -3.48396522493035    1.15177222140531
H          -0.92794126828181   -3.03998668727899    1.82816113502389
H          -1.16617453233142   -3.08290666714020    0.32098237211722
O           2.02173851226097    2.36945365773592    0.01386677492883
H           1.92275320259888    1.83700460131679    0.82019750289638
H           2.40123402438286    1.72227890371728   -0.62164605181091
N          -0.42719921084966    2.23792524144004   -0.88458624004217
H          -0.91311069168900    3.09827666158767   -1.11037861422018
H          -0.37175038849719    1.59875283643997   -1.69690756798829
H           0.56922402899403    2.41823107224101   -0.51899597725790
H          -0.94795881089655    1.69424906237756   -0.12707787432062
