    26
        -50.45643708  Gyration_radius:  2.5992763796 Dipole_moment: 3.440
 S          -1.27188743972910   -1.98229039810864    0.55277800836921
O          -0.28788183186399   -1.19377852169850    1.26986211103446
O          -0.89222392242604   -2.14729052618396   -0.84987190218811
O          -2.63739227484125   -1.55374670065793    0.72559463806628
O          -1.18359449486325   -3.43855987674589    1.19662430505090
H          -2.02866769627057   -3.81841530258714    0.97681381012064
H          -2.32714290648400   -0.14295103739644   -0.09634115683895
O          -2.07094254027470    0.73089780354539   -0.45365652312893
H          -2.36912501024597    1.37926652619535    0.18885077356123
O           0.23800460523758    1.57438184642383   -1.47701154514727
H          -0.65799975486089    1.24432275314357   -1.24362098517859
H           0.20889345498835    2.51894896589054   -1.26913258909578
O           0.01895338863433    3.73932101177265    0.30609111325422
H           0.43037481583457    4.53458739119614    0.64513699701140
H           0.27951311496831    3.01597751283054    0.90185416755107
O           0.92735842607397    1.25743377295135    1.20085345104255
H           0.83827957704503    1.29501972189658    0.23225063590800
H           0.35206681464887    0.52072479070788    1.46157485050930
O           2.33247409026811   -1.15062267612290    0.87488771694001
H           2.42218347129427   -0.24688148304071    1.20949046630386
H           1.43759702522479   -1.41552214267963    1.17832646670995
N           1.27214650040581   -0.93854285845948   -1.53241213556347
H           0.35283049221359   -1.46229904835504   -1.30607453504781
H           1.02776887840197    0.05250264462778   -1.69630226713064
H           1.86436813017010   -1.02646421724887   -0.65334886334281
H           1.72404509649329   -1.34601996188990   -2.34321701878451
