    26
        -50.46831510  Gyration_radius:  2.50842014388 Dipole_moment: 1.216
 S          -1.21056687859975   -1.18195075383307   -0.87078453915629
O          -0.79147182389145   -1.82207440737329    0.36503175538194
O          -0.10251061071088   -0.88799134383770   -1.75618404001133
O          -2.03030608649690   -0.00644284941114   -0.60894651956680
O          -2.12556668813077   -2.23673183284880   -1.61303304781768
H          -2.48592661218052   -2.73371331221591   -0.88554500757606
H           0.70810809711259    0.61824079739560   -1.48053073262528
O           1.04134881512575    1.40406012553985   -1.00526328146267
H           0.32016117748499    2.05519898463705   -1.07802953761641
O          -1.43286148216105    2.52443266179683   -1.16816519226152
H          -1.72344878238733    1.59560856913091   -1.03745383379810
H          -1.81075129132420    2.80854871257201   -2.00125560878902
O          -1.78464610982612    1.54885463240911    1.64521657099269
H          -1.76458551835804    2.39186931393082    1.18200549686385
H          -2.07125338473777    0.90643317360219    0.97194552752417
O           2.72775459515303   -1.15109619495597    2.01844808140886
H           2.63458570500928   -2.00044852235169    2.45187864286292
H           2.69677184889083   -1.33660929095067    1.05615804940436
O           2.32669754812792   -1.45696141509747   -0.65678015692894
H           1.42439114200888   -1.45082593010436   -1.02416525125527
H           2.79277713453079   -0.75372419475564   -1.11574943728628
N           0.54249904081805    0.24644505674932    1.34937807351657
H           0.87182917770774    0.76412692870870    0.48833022593563
H           0.04993139908063   -0.62489801654532    1.02796640600366
H           1.36096247906951   -0.05166659481694    1.91276809074520
H          -0.16392291131813    0.83131571261342    1.83275927552289
