    26
        -50.46888059  Gyration_radius:  2.40146898661 Dipole_moment: 6.709
 S           0.17447658990155    1.56191773994961   -0.11521240873316
O          -0.22649088739473    0.92577940172560    1.13359518872658
O          -0.23023795056910    2.94056106388870   -0.20462725806537
O          -0.61512950941020    0.77606929989708   -1.27126659457752
O           1.56491334734091    1.28476384570320   -0.43300218575523
H           1.51635862542130   -0.11247912194005   -1.28695028485955
H          -1.51726342476784    1.12225261883700   -1.18870230843355
O           1.40383066246947   -0.97063869739114   -1.76520083530366
H           0.99716324246427   -0.72770385832479   -2.59920614720567
O          -2.70187402083329    2.19762639731652   -0.43491269180281
H          -3.24091478166974    2.86801143457326   -0.86009016521919
H          -1.85681529921928    2.64478143987937   -0.18903695798408
O           3.23447321223469   -0.42495074732340    0.81788000252766
H           3.51016585453645   -0.93086469760854    0.05029617631946
H           2.74908811634676    0.34335851894219    0.46229201534485
O           1.01453693269367   -1.24111806714641    2.07575766620212
H           0.56844521571721   -0.37408100745919    1.99641441872102
H           1.93473410768184   -1.06182578050772    1.78380609150770
O          -2.35767280806139   -0.52805010043768    0.65145231629840
H          -1.64926847538700    0.05354435710943    1.00629380397905
H          -2.99264169496390    0.07891589993328    0.26204146816704
N          -0.26973787532756   -2.11293688616338    0.00191324885619
H           0.31461984280059   -1.72275444037210   -0.78151997537662
H          -1.17449241856770   -1.59646557139865    0.07309306566633
H          -0.42337311551035   -3.10952828413935   -0.10302882505844
H           0.27310651206978   -1.88418475754290    0.91792116606540
