    26
        -50.46626413  Gyration_radius:  2.52202446155 Dipole_moment: 6.329
 S           0.27061241653571    0.28653643533775   -0.92559930217762
O           1.12292292591559   -0.63844697703151   -0.17429085421341
O           0.06644571752044   -0.26160798086941   -2.34189716818732
O          -1.03767826502258    0.41535199766432   -0.28287974289842
O           0.91740396322379    1.58856817612699   -1.05996769451386
O          -3.25642939137027   -0.42032764057385   -1.49745340462176
H          -3.34766553519417    0.17440430822596   -2.24386670113420
H          -2.51710162014212   -0.06848129977595   -0.95941982372509
O           3.06052780119998    0.16177197338970    1.39557775561866
H           2.34837819848117   -0.25312738142095    0.84949087730408
H           3.84968943589487    0.13602455554923    0.85167800565349
O          -0.33702831350713   -2.75815475779535    0.39181574305963
H           0.28968172683415   -3.47371586208728    0.51198189664894
H           0.19740947588850   -1.94171923804573    0.28346304895261
O          -0.87039628778298    1.27997452782559    2.17201578067062
H          -0.97600007118807    0.85003728843052    1.28741999758999
H          -1.73426611592065    1.62792615891436    2.39883579310118
O          -1.39511699712807   -2.29613600216374   -2.02235997219469
H          -0.49238689092209   -1.12394940587951   -2.26605022793468
H          -1.11846760960100   -2.61446483331039   -1.13499408648952
H          -2.24525281254362   -1.83067508786564   -1.87903726541957
N           1.45202096511851    2.26734440401573    1.35285382844461
H           1.74660704576744    3.21615840593878    1.55493399200963
H           2.19521392021949    1.55732922685607    1.57394526510436
H           0.57151151353805    2.00721652136000    1.85942429693751
H           1.23936483418162    2.11216246718620    0.30437996241448
