    26
        -50.47138577  Gyration_radius:  2.40915286258 Dipole_moment: 3.026
 S          -1.07574825499468   -1.27016258442093   -0.05873439426837
O          -0.49339894232448   -2.22989026363437   -0.97295933739727
O          -1.43980881228596   -0.02210593005869   -0.72945802678706
O          -0.19386395982726   -1.01128298540990    1.07683678760411
O          -2.39486729527373   -1.88991845261470    0.50683396447469
H          -2.82615061942862   -1.14298228417684    0.95754802210184
H           1.40909400432689   -0.81181834660190    0.93857696359878
O           2.37434825436271   -0.66462045959715    0.76989180627055
H           2.83285699362621   -1.03764654163372    1.52406201374780
O          -3.15420009949736    0.63350733008965    1.08677173296794
H          -2.52614162219209    0.60488040542739    0.32844962338665
H          -3.99181338009824    0.94613449270211    0.73908147890739
O          -0.50135225734865    1.48293597448301    2.01879481517707
H          -0.38776999783422    0.54298500461934    1.78388727602617
H          -1.44984125368599    1.63502811065280    1.98635896448424
O           1.56117158705388    2.04478910837355    0.32732702439743
H           2.06503488112900    1.25371112222608    0.56131293295301
H           0.81177122843444    2.05779014125877    0.95334693638635
O           0.53937952120525    1.26801871427346   -1.97452784229007
H          -0.31499674458746    0.93014805761644   -1.63980336429848
H           0.94219256312443    1.73199777745384   -1.19427222644223
N           1.67295351570964   -1.02886808133583   -1.82098205676494
H           0.82803280867544   -1.62343783784496   -1.58856673532212
H           1.27307144788823   -0.02160935347595   -2.01414194645236
H           2.24446048595533   -0.97415664113972   -0.96091177411013
H           2.19558594787231   -1.40342646724130   -2.60472262834458
