    26
        -50.46809873  Gyration_radius:  2.43282805215 Dipole_moment: 5.204
 S          -0.84654178610085   -0.37816431144721    0.41781279926314
O          -0.41332835340465    1.02871166656641    0.29267137742313
O           0.36918929300478   -1.24261744182169   -0.04258603066403
O          -1.00692218050921   -0.73283638857136    1.81875630549843
O          -1.97675504194370   -0.66757124490090   -0.42681210374336
O           2.24720781972980    0.81915232367804    0.15078223127135
H           2.43901063096731    0.27366066554129   -0.61638170396871
H           1.31408398958633    1.09725074760585    0.05407457151070
O          -0.96928067766942    1.30916843836260   -2.29722834259562
H          -1.81994812442298    0.87219362284046   -2.39376818147559
H          -0.82826770631294    1.38022734427464   -1.33460191775924
O          -1.57568485602286   -2.18396027501381   -2.58327868932129
H          -1.80867402317325   -3.08694670360515   -2.36526628730120
H          -1.82483133321942   -1.64474514461130   -1.80343371611438
O          -0.13406179682132    2.18698640930195    2.68753706630882
H          -0.96318484935705    2.03278179810359    3.14464651853390
H          -0.29914461302242    1.93541718098430    1.75370437455813
O           0.70062914063868   -0.74736200554151   -2.51019926609563
H           0.22403591523519    0.11219989756388   -2.60101596569882
H           0.53984786261325   -1.08004958752449   -1.03522193289264
H           0.05802721079473   -1.40336027985371   -2.83906693545690
N           1.35032471023316    0.00213921551069    2.52946191420767
H           1.01809871282770    0.94410202887492    2.85336790077246
H           1.88848130942041    0.15960842225045    1.63864157737029
H           1.89033653340924   -0.49542021897422    3.22900368645790
H           0.42735220352527   -0.49056615959900    2.27840074992457
