    26
        -50.46282882  Gyration_radius:  2.48636889831 Dipole_moment: 5.943
 S          -0.42521579394876   -0.83001503128162    1.52883895090251
O          -0.62825685643684    0.54242543872441    2.00438309038288
O          -0.29616549758972   -1.79480915853811    2.58297378510964
O           0.98577960768614   -0.75795665073525    0.76465879218518
O          -1.36547214289076   -1.17959675580590    0.48028778955294
H          -0.75732865537225   -2.33211267862858   -0.65799059797371
H           1.58946172848310   -0.57439505895733    1.51496725557810
O           0.75599484822001   -0.44306535770692   -1.94791783970065
H           0.90308425146372   -0.53943584039333   -0.99064215992772
O          -1.86445273552538    0.32596351303882   -1.65260472554000
H          -1.97308115117422   -0.32585227583637   -0.93212397216943
H          -1.01787510254454    0.06401871225075   -2.06281329840392
O           1.37631283005379    2.22071328720284   -1.58295382947190
H           1.32584213963598    1.28245539166163   -1.83095652234608
H           1.54839753676022    2.70767686151940   -2.39014349946753
O          -0.32629511295554   -2.87234701794525   -1.34851851479725
H           0.55962324774493   -1.35154411525843   -2.22149897775496
H          -0.19252679553996   -3.73714451759490   -0.95977138050646
O           1.77208706115568   -0.29323655880076    3.21564011878896
H           1.26606586352493    0.51172317876305    3.36250054014367
H           1.12028894603078   -1.01254861588709    3.31865449382533
N          -0.87133131958160    2.10971843641127   -0.03386259103479
H           0.05087107962155    2.31859964047786   -0.45993593011710
H          -1.40355905938926    1.49322330748873   -0.73626897839415
H          -0.75437532677134    1.50704812685151    0.85033526747764
H          -1.37787359066768    2.96049375897780    0.18476274366424
