    26
        -50.46130493  Gyration_radius:  2.76930509502 Dipole_moment: 5.318
 S           1.83335430717606    0.00341826428123   -0.84546954589182
O           1.34067697249183    0.75601794499535    0.30545168604712
O           1.07550250635474    0.32829490394677   -2.04704112472991
O           1.81592544152782   -1.43616097720518   -0.59623531831001
O           3.32323344173597    0.43549731697449   -1.06007423307104
H           3.59722905411513   -0.05998664057439   -1.85591504434619
H           0.33645958908978   -1.84289069611807   -0.15841287600668
O          -0.61631473225246   -1.99441874623014    0.09062351922003
H          -0.81186044878704   -2.90096242797746   -0.15140813022410
O          -3.08676434619442    1.97865071064404    0.57464626437691
H          -2.81765663835817    1.68171107316851    1.47878691994278
H          -3.02871349219718    2.93551555923955    0.58531542987349
O           3.00724497183049   -1.24145952643959   -3.10261760879223
H           2.21265567993011   -0.68739014368964   -3.16090957412425
H           2.78959647790886   -1.90771244855960   -2.44006353544085
O          -2.08091921616428    1.17000303897276    2.87451367453993
H          -1.27021017889400    0.62687625667695    2.71743573238453
H          -2.55277395208513    0.73837051909263    3.58749318536656
O          -0.00941411075952   -0.41700018449137    2.35483717604238
H           0.65733174363952    0.04979000047162    1.82216169045060
H          -0.28600683623920   -1.16383222602513    1.80663799899393
N          -1.12312871309307    0.60256171749055   -0.56383939100525
H          -0.86688984315898    0.70523211939231   -1.55059601926691
H          -1.25772695407282   -0.40536577429060   -0.36206096684527
H          -0.23271789049268    0.86535758089305   -0.05857295823343
H          -1.94811287297770    1.17988281541855   -0.24468692112370
