    26
        -50.46615266  Gyration_radius:  2.42119496713 Dipole_moment: 4.641
 S          -1.55917199725658   -1.03048640167222   -0.28791207526175
O          -1.35682702144980   -1.12187537015817    1.13031439651923
O          -0.68160912346929   -1.87956281227128   -1.07999863620858
O          -1.50646748094721    0.35780959532342   -0.75869016999497
O          -3.02715172075833   -1.53204099458526   -0.59538691553947
H          -2.97829561448977   -1.65100369574773   -1.53735208293680
H           0.08160476819000    0.78825938779524   -1.02310690850238
O           1.04988966641268    0.93831517528466   -1.10259648602652
H           1.26544159522281    0.51372115953006   -1.95235177653847
O           1.01365974331830   -1.00040361223394   -2.98673627878495
H           1.68979981245484   -1.67969905589105   -3.02206596228795
H           0.31987811442482   -1.35219898268595   -2.39360101456748
O          -1.65539360723543    2.22368154301758    1.05917080747885
H          -1.71227208199954    1.45313458987141    0.44234771323541
H          -2.01706053970066    2.96978643406989    0.57744921316562
O           0.86576495986304   -0.63034324672818    2.48445104362340
H          -0.05846774141957   -0.85864973183909    2.25729104259970
H           1.37549811487374   -1.10226516285257    1.78512287734445
O           1.70478823130629   -1.49144505399679    0.12819092181966
H           0.87023027665296   -1.86606474045818   -0.20465188271754
H           1.77095713816733   -0.63251530929376   -0.31926868965845
N           0.92978890350108    1.74520928844894    1.48748408806202
H           1.23808982361473    1.58456708404913    0.51418295076577
H           0.93858994314849    0.77149897411063    2.00045270376723
H           1.51378259529789    2.42715785191826    1.95771620751722
H          -0.07504677773131    2.05541308703161    1.43954492316152
