    26
        -50.46960865  Gyration_radius:  2.44480338309 Dipole_moment: 5.147
 S          -1.23128678070106    0.53596593117519   -0.78542757021556
O          -1.61589387017685    0.70483225121379    0.59242580484383
O          -1.47717108953289   -0.80804594170190   -1.28562281053623
O           0.19184111318920    0.89103916073269   -0.99706749890292
O          -2.06647444555415    1.53987551348098   -1.63368383928203
H          -1.65494344566965    1.50008431631420   -2.51913310866061
H           1.28745875507831   -0.24858545348352   -0.54679957862015
O           1.91719314416600   -0.94935433241786   -0.24904635348661
H           2.69891411570852   -0.85737092727538   -0.79575351398881
O          -0.85405745647804   -1.08293617491427    2.44705111674289
H           0.03851074158322   -0.69807036446391    2.64390227241542
H          -1.31539749981067   -0.38493251773794    1.94246670206652
O          -0.23365697311913    1.41973823553980   -3.54222482118169
H           0.12453864575718    2.27795707608414   -3.78063219182390
H           0.17356924517138    1.17145173566863   -2.68963606520053
O           1.55180340198788    0.01139288017423    2.40708285199547
H           1.90743101397749   -0.37665704008917    1.59636180874980
H           1.31007959803693    0.92965826447072    2.16462528184869
O           0.55848585737921    2.27934978536130    1.30107996049320
H           0.52439313276521    1.89111864764580    0.41055497179902
H          -0.35485864903902    2.24604729318517    1.60227258401357
N          -0.29029539779953   -2.44111168392334    0.34046908568506
H          -0.85597739177331   -1.88883531469745   -0.37493677752414
H          -0.48200605676145   -3.43511421439977    0.29067798148327
H           0.69895014517115   -2.22572586967547    0.14958753519736
H          -0.55114984356750   -2.00177125626050    1.31140617208513
