    26
        -50.47376039  Gyration_radius:  2.38788302477 Dipole_moment: 3.939
 S          -1.18469536872196   -1.40152718426233    0.12031684727926
O          -2.61796367907862   -1.49514732104451    0.09676999326147
O          -0.65771848956978   -0.45832300110631    1.09823210232364
O          -0.57861999753887   -1.20848006081889   -1.18694242058032
O          -0.65825185727485   -2.82519180423716    0.63361686855737
H          -1.33205808717654   -3.40900975929566    0.30211756756945
H           1.11484131659227   -0.98754518091441   -1.36394681761783
O           2.03189619035306   -0.68460327077902   -1.19749779851403
H           2.20970940965881   -0.97035318000781   -0.27990797539715
O          -2.81952535618378    1.16403992769453    0.24617875973235
H          -2.95054269101171    0.20040380375933    0.17024530089350
H          -2.36701878043772    1.29097213478148    1.08334134471790
O          -1.11549294407042    1.33564773829985   -1.81665911168500
H          -1.82030320641078    1.49058221725691   -1.15303257479916
H          -0.99358458268984    0.36700200190445   -1.80792857800364
O           1.78980393435596   -1.40689842711875    1.40238370447524
H           0.85474721855092   -1.11773805732854    1.34900341644790
H           1.75120546232402   -2.35680075370742    1.52602233691112
O           0.98919127650421    1.56705067399115    1.71893092335338
H           1.70654370007941    1.04487944836430    2.08967737940454
H           0.26364486452743    0.92779628554017    1.58843017378363
N           1.29620914951873    1.81908128260024   -0.92979465252096
H           1.82173601705201    2.57363385289012   -1.35514197993599
H           0.29938489040443    1.76155117508239   -1.32217920143420
H           1.73271503112217    0.86224593686687   -1.12425595432808
H           1.23414658916523    1.91673153171758    0.11202035635909
