    26
        -50.46359400  Gyration_radius:  2.59949226271 Dipole_moment: 2.148
 S          -1.87637407921462   -1.10452732396504    0.27648024928063
O          -1.56869487210470    0.26048434332109   -0.11816737033195
O          -0.97463388357910   -1.54999955002031    1.33785679560787
O          -1.99304489378574   -2.02429524269748   -0.82398798545321
O          -3.31674632981874   -1.05526685190168    0.96288226319281
H          -3.88512496554149   -1.39583588189860    0.27911894342638
H          -0.51421570617446   -1.54838388352711   -1.60874122362510
O           0.38597983562449   -1.25193935562420   -1.82843991892259
H           0.95077986017514   -1.53715943798196   -1.09786594396638
O           0.98748459696488    1.16856610383039   -2.80301259414528
H           0.65495843706196    0.32389442478308   -2.42501220736162
H           1.53060957370822    0.91679210099602   -3.55118413042859
O           1.75892155183051    2.85191631014950   -0.90821055674563
H           1.21466186637435    3.63210216141007   -1.02610160352221
H           1.54866033824120    2.26350304187946   -1.67339480386508
O           1.54624638410938   -1.69736135517494    0.68971595103895
H           2.02037870581359   -2.37983086503131    1.16645623574573
H           0.60295043969316   -1.75571386826637    0.97936144208701
O          -0.63102345507427    0.53358175152479    2.97341206073865
H          -0.79432302773687   -0.30305511967657    2.48874760489163
H          -1.49545406022886    0.92439380564241    3.10789538171099
N           0.79733022607729    0.96466611563420    0.72510969923083
H           1.38752689102706    0.12360389047334    0.66823208617134
H           0.54691175065687    1.12842235629666    1.71413155317670
H           1.24401397300572    1.77760177401451    0.23824060859975
H          -0.12777916711912    0.73384057579102    0.25647748347507
