    26
        -50.47014106  Gyration_radius:  2.40824649119 Dipole_moment: 4.175
 S           0.13012149883401   -1.05023745331711    1.53500478066524
O          -0.01805576414692   -2.47031195136844    1.47835574987000
O          -1.15196068315606   -0.32295394579663    1.50262516541372
O           0.96310821354780   -0.55847382552954    0.40919396839414
O           0.85880644838867   -0.64263245734295    2.84123376128075
H           0.59503107840490    0.30041273435287    3.01179298728111
H           0.43703207408854   -1.86924227527383   -0.62311279794911
O          -0.07402352247023   -2.39897501216697   -1.26601991423134
H          -0.29234469100811   -3.19330270617070   -0.76983083293297
O           0.96272844471776    2.04473663104365    0.36910396752185
H           1.86921142492825    2.32175085521826    0.22264798412538
H           0.98232089391051    1.05378438611003    0.41098806754333
O          -0.41138785785136    1.62680012456009   -1.97177791276848
H          -0.06608067813084    2.04563633766548   -1.16255225356927
H           0.34803319960312    1.10460193387808   -2.30906081966160
O           1.61803093100003   -0.11536581916679   -2.24474363360242
H           1.39869931312486   -0.96369846187855   -2.63794626417170
H           1.60326885562551   -0.26645601790081   -1.28632967804773
O          -0.16503686420410    1.74986624866645    2.85690964771931
H          -0.90764676159212    1.23744636828902    2.49901637600317
H           0.24659764580388    2.16577389841402    2.08033952364029
N          -1.81608662399489   -0.36191499809898   -1.00504566160891
H          -2.80366630718313   -0.40188564879269   -1.23158933483423
H          -1.30857850721395   -1.22361321140981   -1.30960418408625
H          -1.33735436758376    0.49290556919697   -1.44969977181707
H          -1.66076742343126   -0.30465129316797    0.05010109978080
