    26
        -50.47208657  Gyration_radius:  2.44334658683 Dipole_moment: 2.362
 S          -1.23813123520890   -1.62538909867999   -0.28731411420619
O          -2.06319997816248   -0.63645254052134    0.39719667243445
O          -0.00339121184208   -1.88835171073423    0.42412927452698
O          -1.04958353902404   -1.29433023949159   -1.68859380564450
O          -2.05013717351964   -2.98566243695030   -0.27214467878457
H          -2.66618002939834   -2.87102971269635   -0.98849455079650
H           0.93227328829531   -1.15146696685864   -2.16878271380317
O           2.43130807767661    0.86347250302351   -0.25903202348581
H           3.33010314995388    1.07969221283017   -0.51000996176953
O          -1.55409261860108    1.30422241321886   -1.64435155312910
H          -1.32291793480891    0.36277124850510   -1.77851543058185
H          -2.34807875690154    1.27930051911229   -1.10509564213523
O           0.24573366326735    2.53513219888350   -0.09007633283725
H          -0.36122532923097    2.21407468498163   -0.79345846590507
H           1.09091503595149    2.07430602215567   -0.23545616503451
O           1.55432177404273   -0.39388442121848    2.05100748892640
H           1.11893981354523   -1.14152545293616    1.60411432241088
H           2.05060594652913    0.06374763625663    1.34817039326743
O           1.65694287672267   -1.28881067847865   -1.54647583095260
H           1.20618120470443   -1.70071969759628   -0.78400762845582
H           2.16774067944718    0.08118904707803   -0.81469424800114
N          -0.64315936318050    1.03691465399631    1.85698856330748
H          -1.27626014648303    0.36169255664074    1.35014899330798
H          -0.33084924711445    1.77621378369305    1.14444057109604
H          -1.10886893900644    1.44696897154924    2.65798501124531
H           0.23101000234853    0.49792450425194    2.13232184500055
