    26
        -50.46610759  Gyration_radius:  2.36633000708 Dipole_moment: 2.674
 S          -0.41924588820435   -1.82111456992220   -0.27030432399929
O          -1.14441998979140   -0.72210314480471    0.32591334168366
O           0.96837661267791   -1.87773836217305    0.17321950482630
O          -0.52963421994256   -1.86370383481232   -1.71523368027408
O          -1.10793333373268   -3.13994712469591    0.27690506787440
H          -0.62135034883718   -3.83001892062520   -0.16210730152885
H          -0.86769744642824   -0.32851817410692   -2.11886345785700
O          -1.06273300120568    0.63091640698711   -2.24895912927497
H          -2.00052066322911    0.72250687711556   -2.07059933333864
O          -1.80744684971369    1.73960199589148    1.46760338060726
H          -1.32281653341920    1.33794844971188    2.22036505241845
H          -2.17734209460270    0.96828692715754    1.01995684853342
O           1.79364182686028   -0.08947131789644   -1.74171460425932
H           1.53869474766545   -0.87193317312779   -1.23093850693947
H           1.36766037697930   -0.18897719859037   -2.59494187598150
O           2.02548820835023    0.35691604217993    1.04380451810911
H           1.64615328049242   -0.52735466153156    0.81970277326934
H           2.84479770025783    0.39910920184902    0.54417074154351
O          -0.24696969334280    0.01383487196678    2.78631981275930
H           0.69174976458747    0.17438452546444    2.64907141019581
H          -0.54460495560926   -0.47613794261798    1.99856789142509
N           0.20687061243098    1.90120864764076   -0.23958499764582
H          -0.16923975351567    1.39215522752114   -1.08263033910809
H           0.56759195310355    2.81069370419585   -0.50657886425573
H          -0.59358743755281    1.97429143723346    0.45922293070967
H           0.96451715571696    1.31516411002520    0.19763314047496
