    26
        -50.46783686  Gyration_radius:  2.42030842305 Dipole_moment: 5.691
 S          -0.60087667311640    0.70170837714828    1.42978448347567
O          -1.52534959340670    1.37177888137884    2.29941276548691
O           0.50895183816123    1.53991632096061    0.98741974356396
O          -1.39980907986444    0.35192191714432    0.07234795788605
O          -0.13152094074002   -0.59700918376420    1.88551283159399
H           1.39368633948556   -0.71003424914378    1.29850499845164
H          -1.78190643671636    1.22174220904023   -0.13359717606491
O           2.25092516885598   -0.61146056074810    0.81890124221322
H           2.45381880556585    0.32288078938149    0.93355231244504
O           0.63267152634502    1.81838127592419   -1.59279989467828
H          -0.24040163893321    2.12593536226566   -1.84538742758150
H           0.63478420370838    1.79222703689956   -0.60095265363296
O          -1.83962968960406    2.96163267190620    0.24256634813203
H          -1.90363399075954    2.59835776618234    1.15042755773809
H          -1.04964315992473    3.50850352288515    0.25277170534581
O          -0.53628488785421   -3.09032664347158    1.03691532224857
H          -0.50207014760995   -2.19925425943764    1.44029108895065
H           0.18891549939807   -3.58227456440411    1.42508213652676
O          -0.94701762752855   -1.98881943621551   -1.35408574037344
H          -1.41068113180324   -1.22727160548455   -0.97585716136072
H          -0.83713643398894   -2.59610218024553   -0.59103891812093
N           1.34476615559059   -0.75394566278174   -1.66060505526771
H           1.80143824993028   -0.78772607230153   -0.69967803996014
H           1.97215817791643   -1.09001834917806   -2.38256989815596
H           0.44332476114970   -1.33202242148112   -1.61839819605795
H           1.08052069573809    0.25127907756969   -1.81852030280326
