    26
        -50.46570694  Gyration_radius:  2.62351550635 Dipole_moment: 5.293
 S           0.15773556832937   -0.33625497407384   -0.59904583694157
O           0.60207301496639    0.50985877993550    0.52082190386083
O           0.66039100792555   -1.69490881805212   -0.42012965307407
O          -1.39587543916909   -0.45349418386694   -0.44625056177938
O           0.45344810075279    0.24268524811260   -1.88778440997536
O          -1.11415656873757   -2.56669846977946    1.33007221332706
H          -0.49839411439078   -2.43010167141864    0.57539283866454
H          -1.92038117309617   -2.12088380943639    1.05564525605257
O           2.57767486999339   -2.43248191837998    1.24839775538121
H           2.66022814014400   -3.38504300750539    1.17460901825761
H           2.00947714108634   -2.15390150270852    0.49521557122646
O           0.99180618230165    2.70561934088043   -1.02190883642639
H           1.01715117840094    2.32037580732973   -0.13647501218720
H           0.95541713521779    1.91326993638379   -1.58765961083675
O          -1.51957273861553    3.52255784401706   -1.37600516342585
H          -1.52128421912915    4.26788708693419   -1.97852884827236
H          -0.57030307366824    3.32096908249424   -1.19082110911434
O          -2.05282638989117    1.08758854099492   -2.35684704165353
H          -2.01737145311602    2.00454193216900   -1.99768624829530
H          -1.15858446425724    0.89949259556989   -2.68035354286580
H          -1.79551809961793    0.14185565332791   -1.15794146459853
N           0.69501955064458   -1.06690438556002    2.53751593250952
H           0.66554122923472   -0.30103238891443    1.77352326776181
H           1.55545302465459   -1.62230454745981    2.32051097089766
H           0.69373587732585   -0.68620457915541    3.47682116654706
H          -0.13088432718540   -1.68648758181775    2.32891146501372
