    26
        -50.44109519  Gyration_radius:  2.75490465266 Dipole_moment: 4.550
 S          -2.02698447065019    0.58030978927638   -0.71239911236604
O          -2.08440879837938   -0.45205956142064    0.26054040862563
O          -1.65929052189740    0.19727307642854   -2.05579876969258
O          -1.04887484058882    1.69052613259213   -0.27819408743663
O          -3.39161257269561    1.32651828424138   -0.76861103873833
H          -3.28386767568388    1.99144496822060   -1.48798373453632
H          -0.48706931309275    1.41098390797065    0.57610673446534
O           2.40824231288683    0.13771219905114    0.01434123221294
H           2.69825522041830    0.72645632423670   -0.68269585814118
O          -2.28833453744396    2.71566220085705   -2.70367152985933
H          -1.60709285714612    3.18054199634614   -2.20993070465928
H          -1.94569248956614    1.81697097930597   -2.85122443948315
O           0.37660674461613    0.95130829133254    1.61575168460010
H           0.07736058757457    0.04183739514349    1.84359321517812
H           1.22594195614290    0.81211802887315    1.14620880205046
O           2.91561242634103   -1.69155051780871    2.00871463139423
H           2.92022181536499   -0.95312824540642    1.37637045182480
H           3.29245490388838   -2.44275529373752    1.54755756650728
O           0.20952593456297   -1.66961628154955    2.17762330738719
H           1.18433322285472   -1.75687650713460    2.24118758239898
H          -0.15859146995953   -1.92391624461929    3.02411906126365
N           0.48400474618713   -1.41029762778242   -0.87450590501556
H          -0.02367342404950   -1.62198087692890   -0.01867402643987
H           1.71236743370884   -0.47653905469409   -0.39087384548787
H           0.66740463574549   -2.29118004846783   -1.34047984222932
H          -0.16683897912581   -0.88976332433408   -1.45707180384394
