    26
        -50.44653519  Gyration_radius:  2.48483764028 Dipole_moment: 4.985
 S          -1.85853455396085    0.39030225013668   -1.35246494825756
O          -1.98358232220067    0.24114608526217    0.09498388965314
O          -1.25897579222911   -0.73919571074296   -1.99432822005535
O          -1.20316079063447    1.67111897230076   -1.67168734368114
O          -3.32748063841550    0.54201615788129   -1.91424020985584
H          -3.59359400296104    1.36712984147755   -1.52306201218597
H          -0.14965948844967    2.10536022404049   -0.88935093014199
O           1.31831838606871   -0.56591311564424    2.02824432685329
H           1.77317203709226   -1.08211744029852    2.69363083449230
O           0.63292402044598    2.34963001806081   -0.19043698318967
H           0.18664613215950    2.10089170827384    0.75101849589555
H           1.35378268266538    1.66285707501803   -0.32029339045444
O           1.20863680497847   -1.86033047534874   -1.67381376640114
H           0.35597140743805   -1.53981107048721   -2.01100692356259
H           1.69723425966426   -1.06983322822419   -1.41893643981850
O           2.35620220021131    0.40180232384489   -0.19892709440215
H           2.03976607342460   -0.00989669940425    0.64673800036844
H           3.29826239024684    0.55155561030952   -0.10631597069557
O          -0.47550972233744    1.46296389538764    1.85300927716130
H          -1.17187222349320    1.00211985331694    1.32577848420244
H           0.14412239073719    0.76089436868507    2.13265363134753
N          -0.33132766332741   -2.02460476462355    0.73852207241259
H           0.18555944923991   -2.27638423910686   -0.10693899531938
H          -1.05979490359087   -1.37318146688856    0.44746635492981
H          -0.77706699127581   -2.85684892108115    1.10084097487215
H           0.63996086850506   -1.21167125213925    1.55891686582699
