    26
        -50.47080844  Gyration_radius:  2.41635892075 Dipole_moment: 4.526
 S          -0.60863482244558   -1.84685146955586   -0.39406132353539
O          -0.42047014051640   -1.03906250742265   -1.58547324063998
O          -1.63905711761434   -1.34814888584224    0.49029516533988
O           0.64719999090879   -2.08936552588130    0.30875677147448
O          -1.10252574656099   -3.25669952925538   -0.91774421190019
H          -1.30439090889912   -3.70479025751349   -0.10372947178599
H           1.84513863405828   -1.29062726133309   -0.52444040700594
O           2.24774589741639   -0.69281568496877   -1.19375975087869
H           1.65921826712849   -0.80647451577405   -1.94941163001947
O          -0.82409168808565    1.50415035792886   -1.87076516600108
H          -0.73762601418925    0.51972222715082   -1.77789760163979
H          -1.16928423803153    1.65914214698652   -2.75091257233006
O           0.34892563627218    1.62511791028774    1.93760974992373
H          -0.58690054946754    1.67021346070280    1.62543441867706
H           0.41711676212507    0.72664433101605    2.33838649681020
O          -1.97535209564630    1.31443172237841    0.69816755053857
H          -1.80542426729930    1.59393639960642   -0.21064657666978
H          -1.98060438971186    0.33799827324576    0.66791240251044
O           0.12199111475329   -0.92801211706477    2.63944753716972
H           0.45957664178474   -1.41453061079054    1.86358999972913
H          -0.83501443612499   -0.99056544766528    2.55556302874404
N           1.46766800072847    1.70680120975910   -0.37782952785515
H           2.15372845514039    2.44797698867669   -0.46720198850900
H           1.88708474294535    0.76752762081186   -0.64230524815498
H           1.07229215242870    1.66755080134371    0.64740373406412
H           0.66169014890427    1.86673033317273   -1.00638816805556
