    26
        -50.46691798  Gyration_radius:  2.49305365935 Dipole_moment: 1.692
 S          -0.59170735229369   -1.78095816873336    0.67660218600483
O          -1.27693962881385   -0.70830533784408    1.37767467699699
O           0.83797857505305   -1.77179090739847    0.97007911151748
O          -0.87456991396781   -1.80394519224349   -0.73965076781164
O          -1.16628190867907   -3.13409412562957    1.26556056682479
H          -1.12279563921076   -2.99549034654999    2.20663283962175
H          -1.50611058182435   -0.36265349530420   -1.22835654723693
O          -1.81802621440990    0.49755172197486   -1.59603307792956
H          -2.69344606073637    0.32163432463225   -1.94462999268570
O           0.95320929180294    0.98994535131542   -1.64634186672801
H           0.06287797600865    0.87402148489191   -2.00288101315547
H           1.37767290486149    0.09967001875260   -1.68104604112152
O          -1.62311657065546    2.95344256266903   -0.26241809261336
H          -1.50161485780462    3.57567273981718   -0.98081416598191
H          -1.79141961210600    2.08891252627173   -0.67784441585122
O           2.23550978056949    0.14882555918073    2.21614371261606
H           3.13558204589762    0.05583588402666    1.89914843306474
H           1.75018039944511   -0.62675523397697    1.86594516069367
O           1.76817141734366   -1.54293586842795   -1.51248243889437
H           1.58145082241564   -1.68640385901561   -0.56410656578709
H           1.03756711447533   -1.98314851652627   -1.95726886624937
N           0.25395337022888    1.38025380156100    0.88017164928815
H           0.60445437807321    1.24912916658050   -0.11625702541058
H          -0.41926554303262    0.60091408238341    1.10279565276354
H           1.04710430309127    1.29313225102562    1.53783447270509
H          -0.26041850572968    2.26753962657314    0.91154241536687
