    26
        -50.46287580  Gyration_radius:  2.52488386829 Dipole_moment: 1.502
 S          -0.15184504961259   -0.91743449763507   -1.99193573164576
O           0.83752117492351   -1.84069291270044   -1.45920511263219
O           0.34011393597171    0.43759429823918   -2.12465226282892
O          -1.40467751331789   -1.00211577620002   -1.24663691175779
O          -0.48040603617941   -1.40043997822735   -3.46638277174714
H          -0.76728964989418   -2.30301323481529   -3.36422573927021
H          -0.90595322539401   -1.48695271078082    0.22308913932430
O          -0.39779018342599   -1.78252947472694    1.01722059554935
H           0.17529261391508   -2.47245315225864    0.66902948035210
O          -1.73982652183394    1.64832832597141   -1.05460232964061
H          -0.93957008217705    1.47716931520170   -1.58820020813050
H          -2.12481625541489    0.76198575687267   -0.99136126834755
O          -0.67282369030206    2.21464552570784    1.25315051609648
H          -1.14142279075133    2.01645731612471    0.39191811096020
H          -0.58835147609420    3.16784874623193    1.29307685143866
O           2.61374101183591   -0.01449413196815   -0.82968110188743
H           2.20231524611350   -0.87877645222304   -1.04414674857678
H           2.14385946579437    0.57330716216658   -1.44052983867146
O          -0.83180791234835    0.10864704339323    3.27604329806944
H          -1.11102587029706   -0.67402293758702    2.79194144978766
H          -1.12637599473282    0.86764095234819    2.76032922069703
N           1.23697248364020    0.31118716941185    1.39361326138957
H           0.60476549488648   -0.53559648095090    1.34207759197660
H           1.90423409809322    0.26482447159026    0.56473019823240
H           0.60886990744177    1.14610255565406    1.33624871337356
H           1.71629683915382    0.31278312116333    2.28909159789225
