    26
        -50.46570678  Gyration_radius:  2.62423051673 Dipole_moment: 5.298
 S           0.07327939725175    0.54067984289074   -0.44081152035003
O          -1.21602780830797   -0.21806771416003   -0.90200896790043
O           0.52136895445034   -0.14838316204461    0.78059815254831
O           1.04278630252922    0.32765670730486   -1.51099134283543
O          -0.26258316798932    1.92536830060960   -0.20957858607149
O           0.31442511843014   -2.09992431055028   -2.25103791252128
H          -0.63853815674877   -2.08359436345499   -2.12575786472334
H           0.57848912044704   -1.15441526573773   -2.19017484384216
O           3.51419194946195   -0.57006282707300   -1.21286202231240
H           3.89062073550566   -0.64578587690991   -2.09159012776446
H           2.68067466597582   -0.05904115683329   -1.32195482212411
O          -0.38555440893290    1.78801847426081    2.44912726745828
H          -0.31270985408677    2.14386093469177    1.54504204122050
H           0.04499803481175    0.92770848500430    2.36271917627638
O          -3.00443155963729    1.29709553827621    2.43557934617969
H          -2.03640654517808    1.45450046553570    2.55436869243228
H          -3.44943357268449    1.97747162794233    2.94310242128203
O          -2.92115633180608    1.54208095135160   -0.23055459149994
H          -2.16202655731334    2.14400714766710   -0.26404435519510
H          -1.99563194123450    0.38257462070438   -0.67336677483019
H          -3.10230310703637    1.39685085510607    0.72714002912795
N           1.77826340919992   -2.21821683245894   -0.05483406647040
H           2.66359673975499   -1.78789207437320   -0.41136070057401
H           1.24955077387803   -1.40112591997875    0.41841785160214
H           1.19506953604996   -2.46307473863141   -0.89701052078154
H           1.93948823320123   -2.99828969915573    0.57184404165651
