    26
        -50.46043043  Gyration_radius:  2.69250291642 Dipole_moment: 3.813
 S          -1.65354235739005   -1.87895089312177   -1.02155339976574
O          -2.52910027402533   -0.76952845499619   -0.73233581252919
O          -1.18017686386365   -2.58988789480980    0.16343029408206
O          -0.52815687980148   -1.49108207704926   -1.86841451946382
O          -2.50156375978912   -2.94396283392921   -1.84166540089206
H          -2.03103321477894   -3.75536963595810   -1.67510488596950
H          -0.09932455668974   -0.02574033468098   -2.17974635889910
O           0.21910093251768    0.91454549395665   -2.31549939588639
H           0.14131249505107    1.08346093929520   -3.25511359415900
O          -1.18609490706498    1.35658778465812   -0.00653557152805
H          -0.75385147336072    1.50450889423019   -0.86425016857433
H          -1.89341822941504    0.70473690138198   -0.21476144243230
O           2.23933381945681    0.67404667017499   -0.55272049361561
H           3.09087790500043    0.59949828733295   -0.98398598408638
H           1.57386248571599    0.81281076209806   -1.25954553776369
O           1.09823880693082    2.31667305435256    1.47020082418999
H           0.20731731571963    2.32765179664874    1.09752376646722
H           1.65628553560060    1.89404217305825    0.80028981237753
O           0.99305715863469    0.42817553237863    3.38529592372667
H           1.13456941013834    1.23240467820061    2.83650669154096
H           0.40263361853799    0.68170747441841    4.09551817609027
N           0.32996751574032   -0.63653513982029    0.99686886851302
H          -0.19703651447423   -1.52533911019312    0.77064144137038
H           0.54724115184797   -0.51592513993888    2.00738462821757
H           1.19896767772892   -0.56652842393360    0.45451992290866
H          -0.27946678811126    0.16799948638092    0.69305222616044
