    26
        -50.46624004  Gyration_radius:  2.66465987189 Dipole_moment: 1.902
 S          -1.88540791568301   -0.97283966270682    0.43683271593952
O          -1.41210738860676    0.35560928308118    0.84126968467332
O          -1.21859927882807   -2.02787000585879    1.15642515507204
O          -1.84777805325019   -1.12666581947096   -1.00832680119312
O          -3.41454684830820   -1.03827415675474    0.85072675484732
H          -3.86262890389000   -0.47950030446444    0.22153762900843
H          -0.30103043880378   -1.76519123318796   -1.20365586245359
O           0.61974179978119   -2.06096748229663   -1.03997802034630
H           0.52916611271329   -2.83795625738157   -0.48169099640160
O          -1.45292742587108    1.52446241684699   -1.53709183244440
H          -1.58408789710763    0.65817341137646   -1.94254668225060
H          -1.46751086795930    1.32289641326794   -0.58218458051564
O           0.89479041798498    2.70614918476543   -2.00435180999816
H           0.03640771611160    2.23575297519169   -1.88158123820540
H           0.67623615855475    3.63870657707744   -2.03230034657375
O           0.87740101704680   -1.75282812786405    2.79162960845209
H           0.56145078125895   -1.62857742768491    3.68740404159182
H           0.08518300036857   -1.96511430452465    2.25372884457192
O           2.72729897636638    1.89210906475193   -0.26881048921472
H           3.48263625725617    1.63894449405948   -0.80189033049352
H           2.06031002588811    2.25366869711310   -0.90207813806765
N           1.20459889851247   -0.09854423364504    0.69271575328319
H           1.15787123891516   -0.83498475177456   -0.05525911418513
H           1.43971761097608   -0.56833375533083    1.58372072914730
H           1.86539239977473    0.67037961732506    0.42668682766616
H           0.22842260938094    0.26079541139316    0.79906848799640
