    26
        -50.46196228  Gyration_radius:  2.4081161797 Dipole_moment: 8.344
 S           0.24924655186001   -1.06148859540364   -1.53619785262466
O          -0.91936784359228   -1.65119803539706   -2.14837082804075
O           0.08350697974775   -0.97910565278280   -0.08417677095954
O           0.56991263253783    0.26410182534013   -2.07709172261866
O           1.46383505107231   -1.99856171784876   -1.80615339747440
H           2.20795064401766   -1.46754110065355   -1.44347933879951
H           0.07667225275071    1.33003906630788   -1.10505649119745
O          -0.25014557891936    2.05678144734717   -0.48377515982680
H          -0.49292740700808    2.78681069611672   -1.05599739939196
O          -2.79210786013671   -1.26730560078993   -0.41999724804921
H          -2.11637675420797   -1.37934115256100   -1.14762286761457
H          -2.83880221445173   -2.13212387484138   -0.00715192242569
O           2.98099130662268   -0.04078861374107   -0.94355935850089
H           2.35680658164629    0.38631326606272   -1.54915536112461
H           2.82378631021707    0.39847728166745   -0.08425276223804
O           0.24504836011056   -0.48043570581429    2.41305092985560
H           0.43170037146800   -1.26548070449999    2.92918637732338
H           0.31988289419469   -0.75088962652775    1.46129656329500
O           1.99223054193797    1.40761361946785    1.17348788001764
H           1.29279173611285    1.79472992216798    0.62964074130681
H           1.54284268401467    0.82208377263707    1.79582895136686
N          -1.86783930153479    0.65972509002333    1.11989635797513
H          -1.28902503569460    1.27011205299674    0.48391483159465
H          -1.21031310776230    0.25798064277097    1.81612179870354
H          -2.61951290428969    1.18130341411008    1.55835402729326
H          -2.24078690073473   -0.14181171615327    0.51126000214848
