    26
        -50.47339495  Gyration_radius:  2.40585088793 Dipole_moment: 3.104
 S          -1.00618083286895   -0.87839984545881    0.14277469919102
O          -1.68325248283719   -0.13322664601620    1.18800898491954
O          -0.08706456111310   -1.87096472629727    0.68389388487078
O          -0.29539376968541    0.01025653303486   -0.77906668652571
O          -2.06830070008289   -1.64545328914624   -0.70448199615453
H          -2.67316402416239   -0.93065667397920   -0.98219510221253
H           1.40241581738345    0.07920702207244   -1.22332088054034
O           2.36002070505924   -0.06779263127175   -1.09820129754706
H           2.46002033594674   -1.02803059432277   -1.24025491254400
O          -0.79665867859212    2.57595816014315   -0.72810921090089
H          -0.24570155112543    2.99907046917670   -1.38853859878556
H          -0.62531694961251    1.60966698195309   -0.80509221035477
O          -3.21700848246425    0.76466697903412   -0.78859751944576
H          -2.74526562326866    1.54894151520491   -1.09196808579360
H          -2.93928432148512    0.64855028795742    0.13465201508472
O          -0.00141697423534    1.80883006884444    1.82106277678531
H          -0.17176937956361    2.36813867455812    1.04353674839763
H          -0.73081342381075    1.15508660343105    1.79461871276505
O           1.81170256472183   -2.71537234579398   -1.01581681654287
H           1.42806196572586   -3.28726941971734   -1.68184264779557
H           1.09278319134049   -2.51708087228058   -0.38262994962217
N           1.77294563015897   -0.09774960170574    1.44757824930067
H           2.21358447850249    0.00163308341677    0.47450887108715
H           2.46149556249748   -0.26449683316568    2.17387645707267
H           1.17615612228088    0.76563801733520    1.65119615065339
H           1.10740542128216   -0.89915090701468    1.35440835463248
