    26
        -50.46530711  Gyration_radius:  2.46037511418 Dipole_moment: 3.913
 S          -1.14080747786358    0.14731588830096   -1.48255952923177
O          -0.71927019635972    1.51528822743862   -1.21498005074612
O          -1.67470237225760   -0.51267551463901   -0.30968722328548
O          -0.08285826863947   -0.61563492438508   -2.12273399422025
O          -2.32875198017848    0.24093856084114   -2.51571891275432
H          -1.91464344178819    0.70428561263218   -3.23536901121639
H           1.38671240435725   -0.35715300773429   -1.34997506876643
O           2.16336061281485   -0.36338247150967   -0.74709026667018
H           2.60722865758948   -1.19588226575855   -0.94856466678488
O           0.37968160581721   -1.42687701693101    1.17413636063123
H          -0.42370816521866   -1.23470799919261    0.65666549173550
H           1.12559285190018   -1.19350631748396    0.59866429228773
O          -2.31818207899853    1.06761271076061    1.72933375240608
H          -3.09622114172300    0.67411950031010    2.12770853247919
H          -2.13698192979427    0.54630554548117    0.91937503343775
O           0.16193460078099    0.76116421759970    2.68662631360361
H          -0.78717193659358    0.95903105257819    2.53122822649538
H           0.27298559730662   -0.16769081796974    2.37984279813141
O           1.25291250673257   -2.96215086981075   -1.32949409624294
H           0.78963958418708   -3.19381186482979   -0.52009772409894
H           0.68540897009486   -2.32834873390864   -1.79169437864707
N           1.17991126542203    1.81051816128990    0.55661499294858
H           1.86941992562140    1.13421343681620    0.19867365064027
H           0.37349862955433    1.79345579655429   -0.13405449034903
H           0.79916385741855    1.45624819877504    1.51846431660444
H           1.57584789982082    2.74132489478325    0.62468563161065
