    26
        -50.46538250  Gyration_radius:  2.49583438556 Dipole_moment: 5.263
 S          -0.74628117193551   -0.95896894810628    1.57932464995614
O          -0.37895048923496    0.43557486514475    1.65361630597362
O           0.33755552912261   -1.85827975930544    1.95445273086507
O          -1.31292797767709   -1.33635315761092    0.28795716027940
O          -1.89239112293664   -1.17371175574097    2.64958972612786
H          -2.00504908246926   -2.11864266247781    2.69208731300633
H          -0.24655960667269   -1.40348835913488   -0.92545999577847
O           0.45512440773096   -1.43904431089044   -1.62422184402314
H           0.07511385238577   -1.92678084133230   -2.35664411785024
O          -1.52489832781512    2.36768183288068   -1.85803000577451
H          -1.98170748469764    1.89092595397065   -1.12730935703380
H          -1.65428771671963    3.30140049689594   -1.68772171526673
O          -2.56720661075298    1.05834043762477    0.23901693899963
H          -2.48160093544125    0.12251594078448    0.00949066229902
H          -1.87402502342846    1.17652272333158    0.90711227121336
O           1.92403914972934    1.35433115560673    0.60285358774799
H           1.10116725982824    1.24462095927235    1.11509589555736
H           1.62464964142404    1.52715680195636   -0.32965142676911
O           0.96745206931090    1.33027836599972   -1.84069041400599
H           0.09731484550895    1.77421425223749   -1.91343656084648
H           0.77846093267756    0.38458046946590   -1.92634047437241
N           2.29608524138213   -1.17259528177249    0.37419372326364
H           3.21806799704240   -1.57664598829857    0.49363731321946
H           1.89386131902018   -1.39567579092027   -0.54859513674424
H           1.60662660000225   -1.53217063835850    1.09504890676103
H           2.29036668459708   -0.07578676122775    0.48462388322688
