    26
        -50.46264178  Gyration_radius:  2.40616709472 Dipole_moment: 3.515
 S          -1.03113882077191    0.52315660848167    0.30276687162898
O          -0.73961747378258    1.30958721149427   -0.87945024342215
O          -0.91253600695469   -0.91665000960179    0.03748517205918
O          -0.16317505845646    0.89329945629929    1.42183468859333
O          -2.50306766842687    0.80453797034746    0.69927524379269
O           1.58672681454786   -1.14089223181124    0.78798551709302
H           1.50678440953057   -0.52736041634684    1.52763442897851
H           0.65907717727495   -1.24182314946236    0.47094948474759
O           2.60601616327002    0.38418029304015   -0.98552945649242
H           2.31506606353083   -0.33817075909232   -0.31782735702751
H           2.34062529437200    1.26825239532449   -0.52506141085844
O          -0.45189731490795   -1.95481472191084   -2.36458663408845
H          -0.67010593524595   -1.66085349867718   -1.45407751175370
H          -1.28865405817458   -2.08966562431011   -2.81174518401653
O           1.58662179748266    2.39867252806474    0.18795080513110
H           1.01622663742826    2.81474838659781   -0.46644039480856
H           0.95751558762804    1.91263439580576    0.77506509974478
O           0.83815429338837    0.32344482318575   -2.71279971172132
H           0.48508432961364   -0.59608056989301   -2.77552280821651
H           0.16873665853323    0.79652802372592   -2.16030533952972
H           1.91010232468718    0.31566788463666   -1.83171034436502
N          -2.08137194660621   -0.74476536161650    2.75296956906870
H          -2.60714998945774    0.25627533922161    1.52285389899563
H          -1.20419419614582   -0.23754806328490    2.81511354221825
H          -2.43124789193622   -0.92349950003729    3.68552212155404
H          -1.89258118042981   -1.62886143017995    2.29764995270986
