    26
        -50.46485021  Gyration_radius:  2.48590798865 Dipole_moment: 7.325
 S           0.36273194916534    1.61818275631970    0.44203432890146
O          -0.66809383119755    0.73614471581590    1.03327347915384
O          -0.24449106913025    2.56481393684639   -0.46257494849989
O           1.38413168973592    0.79524765898999   -0.21511757638010
O           1.03310622255004    2.38026284184031    1.60002562653221
H           1.63690286777038    1.69071195847012    2.00708881500951
H           0.99756147179791   -0.28279478275145   -1.26046874105954
O           0.66967421107232   -0.97939491125808   -1.90407245426908
H           1.02442194291851   -0.72937438595811   -2.75861331130637
O           0.39733693135169   -1.32100682174844    2.38634572019868
H           0.34461336941557   -1.98663798417835    1.68240567320896
H          -0.11527838343319   -0.56408442406717    2.04981473562950
O           2.48507886706768    0.34257410033116    2.18640074571898
H           1.84053287598442   -0.34435527964662    2.47179671048254
H           2.50597534149257    0.27606187539639    1.22009026885788
O           0.28821185787549   -2.91273098220899    0.06151644921008
H           0.54791103345035   -2.31856449187036   -0.65898609926963
H           0.95967711238573   -3.59488443038833    0.11222005282919
O          -2.24327642152175    1.92154698386968   -2.01610357829039
H          -2.93818379626252    2.54986918090072   -1.81224821230543
H          -1.45013561769408    2.23746697372491   -1.51221091357167
N          -1.79420651698709   -0.44585953697750   -0.94196960407039
H          -1.39089644084404   -0.02061213392025   -0.03280848084584
H          -0.97199844571173   -0.81718904330107   -1.46173840606402
H          -2.47507093639472   -1.17222381271043   -0.74899998420934
H          -2.18623628485311    0.37683003850114   -1.46710027559003
