    26
        -50.46834029  Gyration_radius:  2.53588886408 Dipole_moment: 1.044
 S          -1.52261230365626   -1.09217817186367   -0.32990064503298
O          -1.75483063674517    0.31380799562992   -0.03076427692366
O          -0.25932862689610   -1.53679637665813    0.23383338836742
O          -1.66041779580594   -1.40440087178398   -1.73857199571764
O          -2.67234874336039   -1.91144891715503    0.38837539828803
H          -3.11394830328666   -2.29694475706054   -0.36043545434169
H          -0.39466884539459   -0.73501772820527   -2.49536374979741
O           0.38262836803296   -0.28123592334082   -2.90575416047307
H           0.28162708734848   -0.38781022851421   -3.85329018288698
O           0.07732164696054    1.87341306467243   -1.22116168346174
H          -0.74127799570640    1.49871538999050   -0.84461999595081
H           0.26440798910774    1.32164189437039   -1.99893581980791
O          -1.32970090302574    1.07910524559917    2.46789288505807
H          -1.87513156155559    1.86401951050809    2.54398269150735
H          -1.49481485173329    0.73092498128271    1.56437681775690
O           1.26768225316817    1.26767415924762    3.09220570191610
H           0.29477270179731    1.26672077297923    2.94192194699650
H           1.42377789040422    0.64994796077451    3.80803635598101
O           2.27063936770866   -1.43911467670603   -1.19685254757167
H           1.58638800645163   -1.93239721299884   -0.72839759641879
H           1.80645905075478   -1.03877700552256   -1.94873007564444
N           1.46192720314006    0.45625825479031    0.53985100469347
H           1.05905418181284    1.19919319419441   -0.09358752058649
H           2.27361681672686    0.01742121404313    0.08432730043541
H           1.63312931980997    0.82028838905732    1.50058996040490
H           0.73564871388308   -0.30301018729536    0.58097226323862
