    26
        -50.46558909  Gyration_radius:  2.41107406425 Dipole_moment: 6.489
 S           1.28790934071707    1.08086067589821    0.01213403497563
O           0.68741704636626    1.03365208907390    1.34590898842061
O           0.87714025042303    2.28153923535344   -0.71034057412173
O           0.95029909115052   -0.12163401316498   -0.74590856665760
O           2.82502079430580    1.12672002884151    0.16528611786009
H           3.06777141770785    0.19537612133319    0.43229650163805
H          -0.21990329345515   -0.43463391088190   -1.67296229200628
O          -1.04873603514783   -0.62794867726519   -2.21267295273117
H          -0.73454703386009   -1.03805080880736   -3.01967805300175
O           0.72174120282663   -1.57896172656872    1.78066251628756
H           0.68387083430395   -0.60090159272793    1.76157467700222
H           0.01717131238343   -1.86023388500303    1.18408831845723
O          -1.73155176108462   -1.81241997418958    0.19793801453677
H          -1.51704178427221   -1.50129395829977   -0.70036824677092
H          -2.29964485338278   -2.57891042934023    0.10985758936433
O          -1.92853799765241    0.77427714157076    1.19416783255301
H          -1.97604387395397   -0.18451561243215    1.04059841312719
H          -0.98668146556973    0.94217289480666    1.43121396493187
O           3.23884899539184   -1.28998388240719    1.01365537665337
H           2.30454079515154   -1.55124882585938    1.21218607262162
H           3.68329177592200   -1.24996435260065    1.86375770898431
N          -1.61070931158755    1.81937473132713   -1.16205559822626
H          -1.90077237464382    1.45621076956062   -0.18805065889282
H          -1.61445750432708    1.01435057661667   -1.80925982845689
H          -2.19486061220444    2.58140467845359   -1.48702942703849
H          -0.58153494551487    2.12476271671347   -1.03699991950809
