    26
        -50.46655328  Gyration_radius:  2.50330849655 Dipole_moment: 2.049
 S          -0.24003491566901   -1.67650217133117   -1.11525437123991
O          -1.25886290585083   -1.60331510463084   -0.07527190657273
O           1.04326296794002   -2.10822310872334   -0.62771938326251
O          -0.16850136677328   -0.41229720900524   -1.85050298204629
O          -0.72643816976397   -2.76821559860431   -2.15208304960170
H          -1.58109449154002   -2.47209483144725   -2.45374907515427
H           1.17885675454696    0.23437220884229   -1.17860981237922
O           1.87395157254343    0.56015310128141   -0.55964253430849
H           2.53628341861610   -0.13559383483388   -0.54403859564853
O          -2.27296217690574    0.87829812534061   -0.76516192447949
H          -2.59143221284016    0.08261578147961   -0.32649487482639
H          -1.50669443762411    0.56601768125496   -1.28117329093371
O          -1.25941181957495    2.32126948619649    1.29718588616351
H          -0.59206291836308    2.84219289927623    0.81016707617449
H          -1.83620828597432    1.95877126778694    0.59333391808427
O           0.61889636977699    3.06615006168227   -0.52231010741193
H           1.27002461783457    2.35122896764899   -0.52206655449268
H           0.14075720810249    2.98899355645335   -1.35094496322243
O           1.57785782351108   -2.07258057161193    2.02345498652587
H           1.41383064944230   -2.16302088275401    1.06483443237062
H           1.89534749707741   -2.92753243756566    2.31551724332819
N           0.09562633240192    0.10276242362961    1.47284726765130
H           0.88741123849785    0.31302789881991    0.82656569542885
H          -0.46008910173415    1.00825059022342    1.62156608911639
H          -0.51277032691607   -0.59903864392715    0.98680612540028
H           0.47445666924599   -0.33568965547933    2.31274472533968
