    26
        -50.47163767  Gyration_radius:  2.37110392493 Dipole_moment: 7.011
 S          -0.01731421647206    0.04628287037057   -1.53747668068750
O           0.20078189010722    1.12509576522198   -0.56822399020025
O          -1.42385177719686   -0.04319865331401   -1.90176057214514
O           0.45498965823451   -1.22342658167797   -0.97531265930515
O           0.79361267767721    0.35877441329339   -2.80243943235458
H           1.65689142815694    0.73438749596444   -2.44555538065172
H          -0.38415449848872   -1.84269993883281    0.21895053616230
O          -0.92846055899400   -2.11727612371972    1.00820106438193
H          -0.92079244461585   -3.07557475987992    1.01216815008419
O           2.77936015020529    1.33489773477611   -1.51631299500230
H           3.03487257644825    0.58114251370638   -0.93138317613387
H           2.18049376127343    1.87298237536506   -0.98612742698054
O          -1.44546445499046    1.91364517572750    1.41331643475149
H          -0.83329681479261    1.56231068101495    2.07775255321648
H          -0.89834729492087    1.97345580373795    0.60736841575073
O           2.83044302614070   -0.72687658598843    0.16240445478493
H           2.04578837948207   -1.08635960424944   -0.29417581608342
H           2.50805835736473   -0.42903462117819    1.02366260072705
O           0.67580826721628    0.12559244681866    1.88751370163814
H           0.23886567448778   -0.73384469124415    1.89025177517353
H           0.59485764402707    0.46106877211079    0.97310949949776
N          -2.66402849856270   -0.16785925156400    0.35141062438736
H          -2.26288804668913   -0.09124424450081   -0.64645185844288
H          -3.67583693446671   -0.23733886933182    0.34243484995052
H          -2.21596025029635   -1.01189602815913    0.76294004856468
H          -2.32442769035637    0.69699392551507    0.87373528890654
