    26
        -50.46163746  Gyration_radius:  2.53146367184 Dipole_moment: 4.519
 S           0.86140406110208   -1.44609879192348   -1.12604457368914
O           2.05438370602680   -1.14448689320595   -0.38089956659157
O           0.63420817438256   -0.54520409941691   -2.24729839599660
O          -0.32959398867394   -1.56022103897882   -0.28797966007782
O           1.05923595180545   -2.89331997483944   -1.74622112683756
H           1.92819667313391   -2.81959621733863   -2.12617291302544
H          -0.25709577124690   -0.89892393441003    1.21118026408988
O          -0.35538153840925   -0.47030699010032    2.09438861753256
H          -0.50523767453046   -1.18529099401685    2.71495796310256
O           1.77238598387567    1.09948944116452    2.96501852074439
H           1.07899546213528    0.46821719065778    2.70285133915591
H           1.31974921637822    1.87148834072837    3.30952223068494
O           2.00010850367511    1.46328085960986    0.24844930257627
H           2.25078054494816    1.41354437352510    1.18842085000333
H           2.09871844441374    0.54826811357886   -0.07716516448193
O          -0.54969333635440    1.91012016506098    0.60319176930751
H           0.43431938647916    1.86895096935655    0.43276641990942
H          -0.71094344825989    1.19786817325906    1.23633765961929
O          -2.81153774403451   -1.14192705191746   -1.07906174748410
H          -3.36503131228304   -1.29032439708543   -0.31067278087941
H          -1.91281947423846   -1.45934541544881   -0.83408672369307
N          -1.35896553467518    1.02603651040570   -1.71562057857709
H          -0.51996578206609    0.44170226819222   -2.01921585698808
H          -1.58953236181952    1.72189710194810   -2.41564607303937
H          -2.13509758910739    0.34907671186613   -1.56463078276634
H          -1.09159055266307    1.47510555932639   -0.77636897259833
