    26
        -50.47201784  Gyration_radius:  2.51728542689 Dipole_moment: 1.458
 S          -1.13918451535191   -1.07853451375703   -1.23841534329814
O          -1.51061945632759    0.29472728653279   -1.50626930788932
O          -0.74958387369575   -1.26735738940773    0.15918961926086
O          -0.14852600262306   -1.61745113489844   -2.14503017574701
O          -2.45167069564038   -1.93644735626798   -1.45172398398373
H          -2.10384240071627   -2.82086825707565   -1.49233950421292
H           1.29134389228629   -0.94893554675459   -1.83288647058280
O           2.12593637168362   -0.47566917048472   -1.59007482208674
H           2.74698658264174   -0.64994130291360   -2.29932072343917
O           0.69616906556173    1.81175122238510   -1.12143674582453
H          -0.11942247239264    1.43251749458603   -1.49435033139438
H           1.38943229249650    1.15444511417111   -1.30709137008452
O          -2.78757898134586    1.63330241240858    0.44905073572450
H          -3.52474959682649    2.12814742865505    0.09016014658035
H          -2.41287981849675    1.12549220468512   -0.29854842635622
O           1.64698163481618    0.34879608041733    2.96081716593366
H           1.86233343527457   -0.33068141163510    2.27491250726100
H           1.56041661509416   -0.12775971070817    3.78703047657859
O           1.83999849862449   -1.44460619549930    1.00342634456432
H           2.22939574252278   -1.09673353828345    0.18714493598235
H           0.90339953979971   -1.58164467884668    0.77990895986817
N          -0.26823733847997    1.10952763244553    1.24794689608537
H          -1.14737534402963    1.60237723410980    1.42977758966069
H           0.21867091946486    1.56475072640365    0.42857605307075
H           0.37344459038456    1.02476687663279    2.06383716421966
H          -0.52083869471094    0.14602850314315    0.91570862010651
