    26
        -50.47070318  Gyration_radius:  2.52731783306 Dipole_moment: 4.148
 S           1.38877144237321    0.45443997922417   -0.32037081564129
O           1.34851910539691   -0.79079022294672    0.41849502393543
O           0.59745134535584    1.49324285650209    0.32148037685339
O           0.96228379298319    0.27317724449994   -1.71447763475672
O           2.87622424007222    0.91738331886296   -0.34397398532535
H           2.87048016017585    1.65038350022357   -0.98980509666666
H          -0.58865111841394   -0.14669225037373   -1.82937257157127
O          -1.55086530271612   -0.38757932944882   -1.84287330003773
H          -1.80343048543757   -0.42353434790701   -2.76676387630200
O           2.31870051767100    2.38115405354787   -2.47714410510942
H           1.66019361896844    1.66078705401364   -2.40042053562467
H           2.86199347705149    2.17639531628253   -3.24162310360773
O          -1.85361887713853   -1.23480224407733    2.17510144803633
H          -1.58459379323385   -1.87173698425852    1.47245231721541
H          -1.02505868149464   -1.06050472137868    2.67264738629722
O           0.64224862695067   -0.71072440181980    2.98415947843221
H           0.96490493345571   -0.65246032329326    2.06043877802007
H           1.19086265465735   -1.37057285129404    3.41163640851296
O          -0.80194341707261   -2.39719247180142    0.02112635718830
H           0.06935919974017   -1.97676188553310    0.13926642995985
H          -1.19762850376128   -1.94732309089095   -0.73665099955161
N          -1.89475681343724    0.81158445331159    0.59904293754206
H          -0.88719755717193    1.15875287245844    0.57838220792944
H          -2.07789490643710    0.42920320190356   -0.34116916350595
H          -1.95584129291325   -0.00393901264549    1.32532356696004
H          -2.53051239567627    1.56811027686490    0.82509247083437
