    26
        -50.46892389  Gyration_radius:  2.48065836515 Dipole_moment: 4.866
 S          -2.12345832824360    0.19343627399115   -0.47023827096412
O          -0.94249502394841    0.55462193743823   -1.23654042417947
O          -2.08528600224453    0.77352370307039    0.86590924418445
O          -2.39934444083840   -1.22660463881640   -0.45387354100283
O          -3.34929623658892    0.86109309204932   -1.22096368499852
H          -4.05163595114668    0.27553346392945   -0.96059023809449
H          -1.11755682242684   -2.01568383580487    0.13740120912419
O          -0.30764278719044   -2.48022408300296    0.46136201099387
H          -0.60161308222517   -3.33053372884540    0.79167569079909
O           0.81200060774149   -1.42125743966243   -1.89928636483462
H           0.55933553377058   -2.06766010106902   -1.22660723503923
H           0.13313844874140   -0.72750717772147   -1.84176158550758
O           0.98195322213411    2.24853137249236   -0.71182681426542
H           0.25407333063017    1.63305759129287   -0.97356151648516
H           0.98001730703968    2.95503979620207   -1.35860796663137
O           2.68992476708255   -0.03723019946491   -0.57438585223993
H           2.16300131906919   -0.59952186059601   -1.18540725930635
H           2.32623058242174    0.85200446245560   -0.68020189277723
O           1.57463528213976   -0.88461714710861    1.65235818888802
H           2.15139199281509   -0.65171835524865    0.87654957477471
H           0.93555212894115   -1.53411762398818    1.30570857867406
N           0.28729393078072    1.34774490991207    1.76366720937340
H           0.83495317460096    0.40228079069981    1.81155857954422
H          -0.70940939340628    1.12643121671633    1.46544912674307
H           0.30205530512217    1.83588064441304    2.65178743731544
H           0.70218112522809    1.91749692666771    1.01042580591162
