    26
        -50.46651438  Gyration_radius:  2.46656616398 Dipole_moment: 5.699
 S          -1.24304140403469   -1.88206699302789    0.39311593291134
O          -2.53713643002840   -1.34759114238752    0.02601321570352
O          -0.88581104280624   -1.61985164649021    1.76984075480968
O          -0.19345726956760   -1.47864665414591   -0.54114948669088
O          -1.34003140310071   -3.45894933287633    0.23787871415296
H          -2.00614652443916   -3.64972940936579    0.88861230584587
H          -0.40875000832115   -0.38410156377381   -1.66058067102974
O          -0.46354842496722    0.35530143412810   -2.32766538879905
H          -0.56502347741459   -0.07260714172057   -3.17898141704170
O          -1.99394870918167    1.19249575409768   -0.13523842714272
H          -2.31074136376549    0.27361148352495    0.03429994773114
H          -1.71508066442402    1.17448376115014   -1.06131207621629
O           1.65578370023913    1.66898252643873   -1.35837857826875
H           2.06187913528570    2.22110900132792   -2.02724743203324
H           0.90304593314737    1.20202790451530   -1.78960679640104
O           1.20238669874921   -0.15235564256432    2.33993160563895
H           1.82867300110870   -0.47868811766979    1.65477417933097
H           0.43064895256009   -0.76288598734231    2.27506962171110
O           2.34540550067762   -0.79663771606133    0.01772278777188
H           2.37920888064037    0.02611936034823   -0.48547821964290
H           1.49347211343233   -1.20889306902141   -0.22205150066540
N           0.27355690469305    1.86143225080693    1.03592733986402
H           0.90279654513880    1.96580643197965    0.22507564243316
H          -0.68440397037137    1.58342023818835    0.66200708323171
H           0.65867391936372    1.04380206869486    1.66346643494413
H           0.21158940743034    2.72441222130192    1.56395443794229
