    26
        -50.45728830  Gyration_radius:  2.58681346556 Dipole_moment: 2.787
 S          -1.59839439667949   -1.20915078659627    1.23833439957052
O          -1.22506154178802   -0.02463045493705    2.02669628035125
O          -0.44752432248712   -1.86846784588382    0.67821999440665
O          -2.62948449486678   -0.89176291473049    0.26998684865109
O          -2.25116575323138   -2.22826390319308    2.27048736042052
H          -3.11365662863864   -1.86401082873478    2.44785084385266
H          -1.49358934087515   -0.20243613526060   -0.83208761315029
O          -0.91923706694069    0.49919406277985   -1.20333163321846
H          -1.35158691196978    1.31542610032357   -0.87723716527396
O          -2.24164179498975    2.00099444441157    0.56715882571626
H          -1.90871429369258    1.34901075375227    1.21635442293582
H          -3.13561575790826    1.71315831129646    0.36874857977226
O           1.41690865727413   -0.38562514847462   -2.34376233283761
H           1.32847567507165   -0.68859622945880   -3.24842654729425
H           0.52321239345696   -0.12755008935727   -2.05244958271880
O           2.14145040853867   -1.63697840006509    0.10256602635938
H           1.28360456989370   -2.03065555137073    0.34682780477506
H           2.08202321150829   -1.46505481309502   -0.84847578778759
O           2.75067370534836    1.72718985016277   -0.97706442281347
H           2.39123179432786    1.01673943719672   -1.52968354338995
H           3.61549701192386    1.93493067714835   -1.33134218827026
N           0.97583651405337    0.63705456218654    0.76852515106510
H           1.52677343483620    1.48631168414869    0.87225336186332
H           1.60617589840553   -0.20869989228083    0.63933957477282
H           0.27860415335358    0.45309602422076    1.52698599745313
H           0.39520488612196    0.69877708582812   -0.09647463519017
