    26
        -50.46659685  Gyration_radius:  2.522145812 Dipole_moment: 2.495
 S          -1.70714182631675   -0.60261731417897   -1.21105939945640
O          -1.27971857685414    0.79802661872224   -1.12238455781996
O          -1.61234203571436   -1.26124937160697    0.07078558594634
O          -1.07533995409208   -1.30095333979023   -2.30780950332628
O          -3.25876757615856   -0.55382740019791   -1.57082367540428
H          -3.25675267767956   -0.61532485840173   -2.52097657774537
H           0.42572704299126   -1.15301061023232   -1.62261447444696
O           1.23968803348677   -0.87215436590168   -1.15379921628906
H           1.50656624627466   -0.04388343748082   -1.56904339391967
O           1.08428235423717    1.96918622417554   -1.29556470177503
H           0.92046287924228    2.86118183032685   -1.60557179180507
H           0.19555635796941    1.54972380754020   -1.22596180986711
O          -1.48962050057681    1.11283441253379    1.47130576948685
H          -1.50911601931563    1.14298299317236    0.48973442498580
H          -2.06954000433792    0.37988586996798    1.69738540740470
O           2.73862911835290    1.75907521387810    0.89060852409928
H           3.62115465255500    1.64761871760141    0.53527113730693
H           2.15212155193363    1.92060104785632    0.12475478324377
O          -0.19993313611183   -2.52223706902686    2.00518051164676
H           0.05830693124186   -3.37826538933049    1.66074761847635
H          -0.81246575063092   -2.14757946706001    1.34363779009982
N           0.88347108421429   -0.13570192638256    1.40855002351794
H           0.95916908731880   -0.45207589253810    0.40557483124262
H          -0.00689123179005    0.42149755921037    1.51265709923501
H           0.79465731523711   -0.98800598884433    1.98131559957504
H           1.69783664469333    0.46427211598141    1.60809999549367
