    26
        -50.47214164  Gyration_radius:  2.41838528652 Dipole_moment: 3.327
 S          -1.46083745148116   -0.94020533048654    0.71709662416961
O          -1.19575214081688    0.12350402807961    1.66408673395250
O          -0.27761976394202   -1.74470526156577    0.44963361800611
O          -2.08632602428215   -0.47551502516142   -0.50909989719434
O          -2.50711238862014   -1.89711079852798    1.41314105869869
H          -2.71662784292685   -2.50359717793572    0.71106341382346
H          -1.67728650519798    1.15953595047642   -0.48994159629385
O          -1.34978207026149    2.07907894499255   -0.42647153346603
H          -1.60409405592091    2.36696851675526    0.45242299989261
O          -1.04851930545640    0.01353029301528   -2.98674305191608
H          -1.17412272397822    0.96395548754092   -3.03898789781868
H          -1.54965442483452   -0.27185182281211   -2.20370522076656
O           1.33932323356799    1.85058092753827   -0.52110646632121
H           0.39358978790594    2.09928054222878   -0.59042371752817
H           1.41073864684724    1.00271434144097   -1.02336502309802
O           1.15873669011430   -0.59593988016155   -1.53353931295723
H           0.62449071053795   -1.06943269845131   -0.86971843006924
H           0.54192967439468   -0.45085116897416   -2.27619658869736
O           2.32929076880328   -1.67447457167038    1.08128400946685
H           1.40332912790390   -1.95616056759039    0.95512962663073
H           2.67730088016464   -1.57262758979002    0.18946602074411
N           1.37003740110005    0.70976078060876    1.79906228692791
H           1.45723279647859    1.29656545011836    0.88991898002224
H           1.70410589648782    1.20668623312843    2.61668588057722
H           0.34730691707947    0.47336863945202    1.88287109713274
H           1.89032216633332   -0.19305823224819    1.64743637609218
