    26
        -50.46908709  Gyration_radius:  2.36573822861 Dipole_moment: 4.964
 S           0.16687103493076   -1.38159729810328   -0.56702666555056
O           0.16802455131402   -1.88073899896645   -1.93457617285270
O          -0.89186168344098   -0.37383625617055   -0.40714283523266
O          -0.12637409456758   -2.55653622126827    0.37036457784155
O           1.46008726657593   -0.79511007363126   -0.20454062310293
O           1.47821291666494    0.40445160468934    2.09839325910673
H           2.35360074917487    0.36194575443808    2.48595974846621
H           1.53979979786473   -0.05923061443424    1.22387147602787
O          -0.11478157859628    2.03154412394013    0.44641023108259
H           0.43175277896790    1.80516245795484    1.21140251003985
H          -0.49236340202266    1.17653357650069    0.15419533793950
O           1.49256568051951    1.46486457656733   -1.59804257524334
H           1.72739137236544    0.62420317511023   -1.14905367536867
H           0.99305160495503    1.95957815109671   -0.90628962589766
O          -2.43836991138439    0.05958682697373    1.74157528844358
H          -2.31035651771231    1.00517168926917    1.85154825172068
H          -2.04414536898681   -0.16391184248747    0.87700451303319
O          -0.41959173440487   -1.47183982937424    2.65507854102054
H          -0.24191225925318   -2.19878374872171    1.31998993684640
H           0.26569799054644   -0.77650188743072    2.66081792072195
H          -1.27183567395556   -1.00254253798638    2.53405961952728
N          -0.36474503635678    0.36990797142725   -3.01379296601743
H           0.43232499094665    0.94311768864665   -2.52764856203320
H          -1.25777548861893    0.63830595974408   -2.60641060253248
H          -0.36567736779674    0.46702996732727   -4.02419793572756
H          -0.16959061770710   -0.65077423535451   -2.69194900236160
