    26
        -50.47428053  Gyration_radius:  2.41389587117 Dipole_moment: 4.515
 S          -0.22542584675228    0.05208827725410   -1.16187962346913
O          -0.29823596832439    1.49150862828044   -1.30972652563829
O          -1.23500969198482   -0.42756162768394   -0.20481556237757
O           1.10411306953449   -0.39379411786912   -0.73847980962306
O          -0.53827959924820   -0.57906405723519   -2.53821867715810
H          -0.05408674788230   -1.45584268561580   -2.54777221754867
H           1.90927256821803    1.02441914647379   -0.32601415299406
O           2.07058712318441    1.96251905095276   -0.07743462288733
H           1.53555764883657    2.44329563643529   -0.72058820419998
O          -1.75394072396797    2.19568631220111    0.73662156946076
H          -1.29739050642728    2.08536942815803   -0.13101370705962
H          -2.24530672623881    1.37352543105862    0.83392484090562
O           0.81354820365431   -2.71306661558817   -2.07809503164265
H           1.32909404617073   -2.11141255207019   -1.51976614412229
H           0.15059364816155   -3.12123524798007   -1.48463514993786
O          -1.26867162481883   -3.07528833810103   -0.41801877207660
H          -1.33611021559659   -2.10498407021629   -0.29319660849976
H          -2.12167507756181   -3.36477290768497   -0.74522637899616
O           0.27663946952001   -0.74583788162716    1.93457065480173
H           1.05604011535216   -1.10805312177479    1.50257915850849
H          -0.39221083786699   -0.70347423448154    1.21368188085092
N           0.51341601885824    1.87766211748044    2.04857853404509
H           1.23171950005600    2.03553333177359    1.27724609773953
H          -0.43550730243487    2.14291219726219    1.64881829369875
H           0.47696470069790    0.82978584163467    2.20410912403390
H           0.73430476685678    2.39008207894785    2.89475103417273
