    26
        -50.47113457  Gyration_radius:  2.40828392306 Dipole_moment: 2.410
 S          -0.93673512914322    0.48695907395701   -0.92786121889286
O          -1.54327151140331    1.53138339834302   -0.14516675393697
O          -1.27512143486829   -0.84542371726719   -0.42327664273459
O           0.51999807637618    0.64347409322187   -1.01692545741047
O          -1.49314611526068    0.58186540523449   -2.38490600240646
H          -0.95973925772094   -0.06340612625468   -2.87787444564424
H           1.53045397358982   -0.13918832640402    0.16563310663664
O           1.84836781612903   -0.80334769676903    0.80793546780377
H           1.71044871350514   -1.64931930219557    0.33373193401297
O           0.65906426242505   -0.88382514237133   -3.10894972871622
H           0.82584423670823   -0.32253158171320   -2.31817953553085
H           1.19979680981860   -0.53001598929480   -3.81793299842604
O          -1.23165962909521    1.66581663565604    2.60377386744906
H          -1.74203886492533    1.73730653341858    1.78109850946934
H          -0.45111567767625    2.21923111943674    2.42559212887866
O           0.65845430361051    2.73181101412154    0.97027666064514
H          -0.08151346693030    2.46204416052177    0.40125765274033
H           1.44300923711771    2.36663152917560    0.55679324742819
O           0.70482391533776   -2.64555342443348   -0.79581908621721
H           0.92496914800006   -2.55211817689057   -1.72780146192532
H          -0.11453938744579   -2.12773916444313   -0.68500687054572
N          -0.44347006111432   -0.78809607712062    2.07092280613786
H          -0.95280966641370   -0.91754348273283    1.15910406459555
H          -0.72616483383938    0.17005688060072    2.44344409546632
H          -0.65950050612434   -1.53060287380491    2.72734876139029
H           0.58559503934051   -0.79786876199142    1.78278790971245
