    26
        -50.46716596  Gyration_radius:  2.52570613355 Dipole_moment: 4.250
 S          -0.78884855827361    0.17455255238561   -1.40078118413132
O          -1.17473324117106    0.21498813194472    0.03300814561552
O          -0.35365136250009   -1.14919038534766   -1.77905828901954
O           0.20139989764063    1.19835887208124   -1.66716654489391
O          -2.08252929431911    0.48180953678649   -2.21777905483064
H          -2.53782087749503    1.20505759098309   -1.74089848904792
H           1.63646164431117    0.36489353472727   -1.49138986687642
O           2.29740850790633   -0.32851655542749   -1.26615307322638
H           2.12494490478813   -1.03410120438693   -1.89552847728038
O           0.48917105777774    2.14335920840390    0.99846700632382
H          -0.20209879928557    1.52971752046458    0.69416612412987
H           0.91443832107082    2.43293592632941    0.18615735950087
O          -3.10633430780712    1.99511273941121   -0.30424894487709
H          -2.44167717762461    1.40954919561274    0.10595743513909
H          -3.96380400949048    1.71445863992710    0.02245766478443
O           1.69606141137712    0.65607473695572    2.87317524672568
H           1.36708879280513    1.33173574459111    2.23740207187907
H           1.28723508005927    0.86067320904789    3.71496605230586
O           0.04520418238345   -3.28418216123170   -0.21383748527085
H          -0.16450526131926   -2.56016317008037   -0.84006872176347
H          -0.22618249959472   -4.09515452505443   -0.64425820267144
N           1.00628686604699   -1.06911305065056    0.94627459349121
H           1.65655386699360   -0.82041152131934    0.14834510853300
H           0.88521544428174   -2.08658075653134    0.96989353401959
H           1.35207158216664   -0.63932132057598    1.83078954461320
H           0.08264382920458   -0.64654249907953    0.70010842683712
