    26
        -50.46882838  Gyration_radius:  2.47860056663 Dipole_moment: 6.366
 S          -0.55093767298348   -1.07909432191162   -0.11148769340947
O          -0.96396076386150   -0.36797497687009    1.22840310724653
O          -1.26891596818606   -0.32991213407385   -1.14054800274472
O           0.89632835838933   -0.86967659705965   -0.24888904027474
O          -0.91595395323045   -2.46751421617185   -0.02780362176548
O          -2.15695926035895    2.09121099512798   -0.75833673985406
H          -1.90513184470396    1.13420575637069   -0.77632727740170
H          -2.91062491307311    2.16844166167942   -1.34565255774505
O           1.33745000965797   -3.22897910449330    1.07284227182282
H           0.48863460889504   -3.22291399889978    0.58246930009425
H           1.83143643387295   -2.51235242582126    0.65835956563216
O           0.72459273542943    0.49245619034034   -2.62043073183579
H           1.38398023910318   -0.02871148301145   -2.14601204174184
H          -0.12123471966366    0.13419916222548   -2.26318495540074
O           1.22708010057993    1.38931429309552    0.98374310004576
H           0.51895193063415    1.32848159671324    1.63234311180500
H           1.22258262716642    0.50207242969784    0.54030454872938
O          -0.03663182035048   -2.03505833571698    2.97073067431002
H          -0.73068886039137   -2.66336360588659    3.18210738350962
H           0.60356791974024   -2.52982822211813    2.39336828695567
H          -0.64038157641136   -0.97391883514256    1.95300620389795
N           0.40390715413169    2.65481167329528   -1.16322436105766
H           0.80827654634210    2.29613474155128   -0.24414765975116
H           0.62581479481677    1.89873703471017   -1.88304738732419
H          -0.64073747924468    2.65517751198509   -1.04803412980830
H           0.76955538368500    3.56405522037574   -1.42055135393427
