    26
        -50.46882815  Gyration_radius:  2.47849499862 Dipole_moment: 6.371
 S           0.29656649019023    0.01299187261744   -1.17876488548520
O           1.11812233329896    1.08363203578957   -0.37213638690558
O           0.92937359743196   -0.18777271087392   -2.45444883204520
O           0.28164876825184   -1.19557104281213   -0.34433316105880
O          -1.04453787804270    0.58834745668171   -1.25710448754961
O          -2.44668731255360   -1.28699348129013   -0.09228721334003
H          -1.70776076791833   -1.90538150954888   -0.03761090870097
H          -2.08726135041887   -0.58310329668307   -0.68119179466077
O           0.43220907529374   -0.19492774865443    2.04467630418559
H           0.42607546742856   -0.68267177224440    1.18105220336920
H           0.93646889584168    0.60286040684091    1.85696136296545
O           2.55397917328763   -2.06164297832545   -1.60657232803135
H           1.99749034530516   -1.49179107118318   -2.17796630332978
H           1.94064344241826   -2.34020921378651   -0.91695145084632
O          -1.87803798694824    2.42570204503114    0.39406378804037
H          -1.44411320018669    1.82717023470434   -0.26405048915688
H          -2.53030553733745    2.92228976342982   -0.10266350959768
O           3.52637802636394    0.21445328569631   -0.71690654810031
H           3.32072619399512   -0.72063958354071   -0.98340038233830
H           3.88308205931804    0.63315248659782   -1.50341856765272
H           2.07293758824874    0.80987913989205   -0.47445294200156
N          -2.14221184591558    0.30925255541886    1.97213245520304
H          -2.42077510787137   -0.41131262458571    1.23585651817585
H          -1.11310126794340    0.11931254915219    2.17711995880703
H          -2.18181842599646    1.24639779674592    1.49838625088818
H          -2.71909077556041    0.26657541492949    2.80401136915700
