    26
        -50.46201537  Gyration_radius:  2.69258700622 Dipole_moment: 2.885
 S          -1.18934575367118   -2.39872692289857   -0.49156264400490
O          -2.28528748651795   -1.43533012288014   -0.37933868926888
O          -0.25982569267875   -2.31791405490764    0.60748607121788
O          -0.55563557171168   -2.31203053102217   -1.80039014817911
O          -1.85941469596994   -3.83322439940315   -0.41954947867316
H          -2.38936358782264   -3.83336433362211   -1.21003458947521
H           0.29645403766720   -1.00475663561557   -1.91601045927787
O           0.73829843242094   -0.11113485785525   -1.99270390985662
H           1.12323509900153   -0.08135136457864   -2.87013456848678
O          -0.57505709450126    1.93039176008019    1.61341128404570
H           0.18276405963555    2.47403826411966    1.30105953628462
H          -0.17894932853352    1.11776400853254    1.97902792683149
O           1.59623536052228    3.02307279942680    0.50401959949952
H           1.97538828069792    2.12821422869985    0.31013007290995
H           2.27123048166988    3.49849561236826    0.98893096013664
O           0.66674281095580   -0.44043117459120    2.13164788974852
H           0.27223431668330   -1.14153203854137    1.55476996570835
H           0.89060290682010   -0.88095082153166    2.95255202556546
O           2.36720172130079    0.51379394576297    0.16780453314162
H           1.90600327861028    0.20397654603897   -0.62813047609739
H           1.89956546105142    0.09992395597487    0.91319729458602
N          -1.38609244874159    0.97868068891353   -0.67498624946518
H          -1.11713446365841    1.40584013949411    0.28036669063411
H          -2.02929061719639    1.58712961664290   -1.16945921256969
H          -0.53134741329328    0.81059948051251   -1.23612554997475
H          -1.82921210285106    0.01882618086773   -0.51597786501962
