    26
        -50.47318304  Gyration_radius:  2.44974934062 Dipole_moment: 4.448
 S           0.13160699051270   -1.37639938849034    0.19870757224797
O          -1.27974519628695   -1.18790800131534   -0.03887122949867
O           0.62456107111403   -0.56554663310122    1.30761432045275
O           0.92565934830029   -1.10404221680708   -1.00981635646068
O           0.34415914821588   -2.87564856746491    0.56866607860033
H           1.31436647594910   -2.98186449173951    0.54373241403928
H          -0.17293303661132   -0.47405068375454   -2.11187594430852
O          -0.95908301898733   -0.05905438575886   -2.53051045545814
H          -1.69349464685910   -0.55351137519919   -2.15011733266238
O           2.87954931889385   -2.62271898275464   -0.16377061020014
H           2.33803363697199   -1.94284582270148   -0.61503969115588
H           3.17748353906719   -3.23260316751392   -0.84237429991838
O           1.50429708482076    1.51032023497276   -0.00820241273890
H           1.24094040094160    0.77227095524224    0.59211413850558
H           1.97881080083733    1.07052837839776   -0.71885064049574
O          -2.44277577017675    1.04759682237276    0.84750300393199
H          -2.20992280976459    0.13483078140694    0.57937754187554
H          -2.01675191721188    1.15262205540321    1.72224017693909
O          -0.76209991737485    1.01953436134869    2.94345695103675
H          -0.11618058218761    1.66386423868086    3.23746715512629
H          -0.25762718720068    0.33808121487248    2.45472550398638
N          -0.91212789842646    2.08955225841093   -0.97310159880219
H          -0.98028567984897    1.34967266244097   -1.72776851720563
H          -1.11701302108119    3.01625424472708   -1.32858731145289
H          -1.60304789657968    1.78676428494987   -0.19807921425707
H           0.06362075297418    2.02430121337241   -0.57863923212712
