    26
        -50.47163762  Gyration_radius:  2.37101900412 Dipole_moment: 7.016
 S          -1.31082647939657    0.75026249956896   -0.29511349104046
O          -1.22695102512219    1.11816202091370   -1.70108746209022
O          -0.11633587396761    1.19514707658359    0.43035883946555
O          -1.46453128883663   -0.70085773044634   -0.14654027691492
O          -2.53633763997903    1.44240439095905    0.31663594983195
H          -2.34710919641497    1.43055399414132    1.30555315693882
H          -0.40975201386709   -1.61858077644208   -0.89386193069520
O           0.33614732888576   -2.11089470492239   -1.33649372837400
H          -0.03725215800876   -2.94209936566554   -1.63321907382725
O           1.47613870606667   -0.89243691501531    1.02959449665587
H           1.27985263412844   -1.55129247918715    0.35371568528405
H           0.83961857201893   -0.16522651102163    0.88357755789815
O          -1.65453880843672    1.29863811481817    2.71472614760706
H          -0.79955469469907    1.64032933152838    2.42937000051728
H          -1.51942552230540    0.32642922810175    2.82633326279367
O           2.41896801701228    1.29517752048218   -0.47336762287167
H           1.57313540311664    1.60726318873847   -0.09953510070998
H           2.67074596780194    0.56520426935721    0.11246166592766
O          -1.01769960344458   -1.26757206162106    2.43476135157033
H          -1.31194143159753   -1.21286577520260    1.50532631962033
H          -0.05467528144696   -1.34005477970659    2.39152730860574
N           1.06393138914940    0.22202311827838   -2.46287904612563
H           1.34254095135666    0.36567505726527   -3.42742772153198
H           0.10412136595955    0.66749942254851   -2.25678347603382
H           0.95298955980000   -0.78655110356836   -2.23177867569630
H           1.74874112225541    0.66366296951756   -1.77585413680685
