    26
        -50.46882844  Gyration_radius:  2.47857106484 Dipole_moment: 6.366
 S          -0.42691317537101    0.96958703852751   -0.59673011815867
O           1.07701482774296    1.17202479907057   -0.18567116455748
O          -1.08386160287662    0.35986893670198    0.56682805934988
O          -0.98232397252106    2.24661673980614   -0.95561870878156
O          -0.36184824642782    0.01158264547842   -1.69844157396043
O           0.87167288401380   -0.95487961407184    1.65269277880566
H           0.07199401935044   -0.44993655372145    1.35385075998353
H           1.60997029148108   -0.39510360040831    1.39271543604197
O          -1.83987391344044   -1.92444938648580   -0.74628301586416
H          -2.12482630245303   -1.42257676581766    0.02727356922893
H          -1.40118731543806   -1.23255286853564   -1.29427031305342
O          -1.72451057370781    2.86139990778158    1.48165199552198
H          -1.83109788904041    1.93517490877403    1.72689490426980
H          -1.65603504234081    2.82295046312750    0.50455177740496
O           1.68673175950379   -1.55574355807920   -2.07696942537271
H           1.69414509749275   -1.72278167186753   -3.02083394309920
H           1.01337459287886   -0.84335951594675   -1.94003432112766
O           0.88214581015271    3.20095797310770    1.40153910504265
H          -0.08921391572364    3.14968063694747    1.60579376506234
H           1.07491069656429    1.95965402279523    0.42808409583059
H           0.99360924053154    3.99929733535336    0.88062360485734
N           0.51955001203615   -2.87978876569961   -0.09600085345420
H          -0.49947343734381   -2.68074758759179   -0.34277551110364
H           1.09108195715352   -2.55573709051371   -0.91616927224875
H           0.74860053403531   -2.21966360578317    0.70955509640828
H           0.68636368377231   -3.85147483292854    0.13774326296588
