    26
        -50.46501543  Gyration_radius:  2.55440977052 Dipole_moment: 4.876
 S           1.18861995793355   -0.05583806608432    1.94678977016877
O           2.00122592211505    0.86623849141092    1.16182313610155
O           0.66066762183114   -1.14332861407159    1.15087688665759
O           0.16242654130535    0.65155165191506    2.69450294748918
O           2.16096063897552   -0.71220288599595    3.00627957222651
H           2.52509630262198    0.04918495175781    3.44590599035039
H          -0.94830497279435    1.27166524759047    1.76182296774849
O          -1.59518577330632    1.64531545335933    1.09977230094395
H          -2.16155826260131    2.24049408085710    1.59343483297669
O          -1.91267536567831   -1.31822511119052   -2.19193693030189
H          -1.94308309590132   -1.30998794270240   -1.20451806926637
H          -2.81650648947627   -1.21964299842507   -2.49097046136978
O           0.38235483360709   -0.01339655227735   -2.60587673831294
H          -0.48758255595787   -0.46592327537914   -2.59184390288345
H           1.00515714325113   -0.67377030720621   -2.22166551321166
O          -1.94461865813756   -1.06537940007363    0.45158011069624
H          -1.04113307488658   -1.25515991220331    0.76375544060840
H          -2.08377625354998   -0.13070140453159    0.65834302555765
O           1.74527008061586   -1.80556689185334   -1.18449291517500
H           1.43950706449846   -1.54929090608044   -0.28931676290610
H           1.40362748855092   -2.69017384649004   -1.33017778353342
N           0.44436347364262    1.75677242883195   -0.73164509949663
H          -0.45521934077969    1.82194576104402   -0.22687096904431
H           1.15997946281870    1.41116186737936   -0.02601167388289
H           0.38791968898521    1.02939244705315   -1.55116569032263
H           0.72246764232501    2.66486574336891   -1.08839449182149
