    26
        -50.46860820  Gyration_radius:  2.53206073141 Dipole_moment: 1.491
 S           0.24627731402824   -1.96019262540083    0.47505620252756
O           0.14871330692857   -0.81693768216561    1.38153576391141
O           1.44996346962528   -1.93538610658530   -0.31569159074448
O          -0.96444315136903   -2.09446361319413   -0.32508431728969
O           0.32077152543784   -3.24641601985071    1.39118706826410
H          -0.52181192527122   -3.25694453443766    1.83546599586223
H          -0.49228672444203   -1.18051313003224   -1.65878263603134
O          -0.13693968611168   -0.51284507398812   -2.28363798958811
H           0.64138023060801   -0.92355657154294   -2.66752685585313
O          -2.63780183604722    0.01645892789604   -0.41712877488435
H          -2.52384244388840    0.25747063815920   -1.33885241942257
H          -2.15100548870853   -0.82154264724919   -0.30718776195060
O          -0.46915521259597    3.21349895740039    0.61888122192726
H          -1.14639508995233    3.73881799323251    0.19122653416954
H          -0.94757411298083    2.57650968132166    1.21175377140393
O           3.28195512656378   -0.00408491651190   -0.57548955470470
H           4.01351059187975   -0.16586184286314    0.02126962398685
H           2.71149936661029   -0.79953779237616   -0.52767950231602
O          -1.69602392830849    1.22127246055832    1.84051016685368
H          -2.24087285294268    0.88950708841572    1.10355186895960
H          -1.04136544339700    0.52220822254815    1.98092536192150
N           0.83550861547147    1.08672840918646   -0.33557059565844
H           1.86489522078289    1.06127259571588   -0.43273594760063
H           0.58916464182670    0.42152585751724    0.43861971616662
H           0.44989616796898    2.03169681553628   -0.10307969919817
H           0.41598232828620    0.68131491870464   -1.20153567070204
