    26
        -50.47070311  Gyration_radius:  2.52716809301 Dipole_moment: 4.149
 S          -1.44481267077374    0.38725760682566    0.04919734815489
O          -0.84782833870012    0.56797868233357   -1.25807241899811
O          -0.66204551399448    1.02482914818756    1.09699410278549
O          -1.65493192670654   -1.03345053503335    0.35895164360423
O          -2.84601917516604    1.06697146940327    0.00342017240150
H          -3.26469561889575    0.76829309568233    0.83406784655827
H          -0.26868851260792   -1.84095582557748    0.50045581342218
O           0.61340963035749   -2.28568436317782    0.59116030915871
H           0.43045278308211   -3.18830935428008    0.85626102077488
O           0.89738694923034    2.55116890290446   -1.58790700188863
H           0.73348229113502    2.87837648065879   -2.47405394576888
H           0.19269542464985    1.89319918859173   -1.41124164539085
O          -3.57691041878915   -0.45361611633003    2.04238930049660
H          -2.83074987591771   -0.88057825672432    1.57388044207175
H          -4.35348388408059   -0.99056491085851    1.86866430101949
O           1.16132646385111   -1.12328876519620   -1.94173917247167
H           1.08698923340949   -1.75814823102291   -1.21733897065749
H           0.37162221396893   -0.55738261073978   -1.86514967442867
O           2.82101794118530    0.76691366214626   -1.06554870710185
H           2.39303067575228    0.03141469514821   -1.56327120972320
H           2.28381280996389    1.55683223178298   -1.29370912767373
N           1.77251778582584    0.12270513466766    1.20556132364710
H           2.28728864002519    0.35857158693061    2.04638107641535
H           0.81511679787882    0.59124865066894    1.20512148122263
H           2.30184889206411    0.43629807433320    0.30110787521239
H           1.58816741326985   -0.89007963130959    1.14441779714914
