    26
        -50.47007397  Gyration_radius:  2.53583457517 Dipole_moment: 5.385
 S          -0.02764341877842    0.97932432570921   -0.71211721960098
O          -0.88331971259998    1.75330103599537   -1.74376676149674
O          -0.09669424991136    1.72257888501136    0.54278894168669
O          -0.62257881292622   -0.35246064870185   -0.54001319170986
O           1.33165714548965    0.86622754534027   -1.21839241314154
O          -2.20789449971143    0.21607720070217    1.50032633798757
H          -1.77318317203520   -0.17971773150016    0.71872574449929
H          -1.91663819254267    1.13472749257550    1.46110740240237
O           2.00367878558624   -1.26237417545076    0.15667151628644
H           1.91872416625769   -0.49411864547314   -0.45457360683242
H           1.27658587811658   -1.84377825714907   -0.08487651579123
O          -0.59729068905623   -1.61277089452105   -2.85793671312935
H          -0.61749875791714   -1.21549394877207   -1.95961046330522
H          -1.49901759795654   -1.87126377141957   -3.05579948700184
O          -0.82802244662110   -0.79334328056736    3.50693407120034
H          -1.23130918915947   -0.49607026545526    4.32367135403700
H          -1.44549696590849   -0.52124195454559    2.77716016544996
O           0.35967424776065    0.74255757326364   -3.74705189650574
H           1.13818225759429    0.79374026770863   -3.17370534269361
H           0.04992415451765   -0.18450943649005   -3.67182586617877
H          -0.52166043825159    1.47433187805272   -2.63887254477841
N           1.25638033902897    0.23120920728894    2.20207228885972
H           0.54441982104465   -0.22088278439104    2.83138429812866
H           2.00515885802010    0.66703809855403    2.72964325347485
H           1.63955696592588   -0.47757964516929    1.50913807147431
H           0.74430551400657    0.94449194937738    1.59891857667378
