    26
        -50.47007414  Gyration_radius:  2.53594068911 Dipole_moment: 5.382
 S           1.03217328723737   -0.62704863936151    0.06486626144533
O           1.59831006095183    0.62013167142515    0.57054101990693
O           2.13368980993521   -1.31530604955139   -0.77679096234764
O           0.62414784509996   -1.52700993322984    1.13276137458344
O          -0.10159484815743   -0.33957344834524   -0.82373771792459
O           0.60381451388750    2.10879989882088   -1.53568594927316
H           1.40739621578583    2.02134794301905   -1.00939886746765
H           0.20954305334970    1.21593016516848   -1.47336327529117
O          -1.00443367263119   -2.60923860739508   -1.82173363197659
H          -0.97823636297955   -2.53448394324014   -2.77716258240944
H          -0.73892734666259   -1.73057458285459   -1.47146280608173
O          -0.98616627879990    3.55657687075728   -0.01115869962941
H          -0.46758524727924    3.06099995226634   -0.69925285861236
H          -0.69729486309321    4.46865321740776   -0.06362721168674
O          -1.76578887849655   -0.51353188062094    1.50019912693540
H          -2.09118161572345   -0.54514335618836    0.59567775960695
H          -0.93117347369941   -1.03710903666071    1.47990077642104
O           1.09740145738371   -3.64433866203641   -0.49394838107349
H           1.88752307196788   -2.28968837618015   -0.77610049326777
H           0.86139602454428   -3.33221517882062    0.39167415216573
H           0.28692615945987   -3.51909643907128   -1.03117615087337
N          -0.40235370473263    1.72333613928472    1.83114976565319
H          -1.09279199772424    0.91713905065588    1.77823222984243
H          -0.72293149990747    2.52009072309902    1.22295092805333
H          -0.25569643316761    2.01559794793878    2.79135647330222
H           0.49383472346162    1.33575455375648    1.40528971004756
