    26
        -50.46578754  Gyration_radius:  2.71911823437 Dipole_moment: 3.985
 S          -0.30123851466616   -2.35614203350818    0.86934531284567
O           0.37004744510028   -1.90093863034478    2.06391623305372
O           0.55700343508625   -2.35241168665009   -0.31048908145192
O          -1.55227230772236   -1.64821788942633    0.60812260928454
O          -0.69245900749651   -3.87094694559819    1.13294123082419
H          -1.09070859902106   -4.15689527603837    0.31638710494233
H          -1.29311906319442   -0.80023836741088   -0.75389678937221
O          -0.79779860326910   -0.36670224714470   -1.49406446362610
H          -0.12185223340904   -1.02927260689210   -1.69201801590214
O          -1.01498733290471    2.16557849063357   -2.59956040412149
H          -1.94414439503619    2.39910691607339   -2.62769361581291
H          -0.97655151952768    1.22653721148731   -2.35082721573665
O           0.70545268242362    3.49852919467657   -0.97141878320831
H           0.06356424868294    3.13852359773776   -1.61753943581349
H           1.43216054652323    3.85821562157096   -1.48143243868161
O           2.45166058779197   -0.77806284845359    0.66224656418268
H           2.35002258604716   -1.04944491860809    1.58109759294592
H           1.90490138511073   -1.43232711225187    0.17705610968196
O          -0.91221072578239    0.37497209937216    2.39185590639923
H          -1.71954248771354    0.05977463251378    1.97073994721758
H          -0.39251798964213   -0.44851484769855    2.51081959260589
N           0.60673520577143    1.11893063385921    0.32801281403506
H           1.48099547875776    0.55177446330995    0.47173319464893
H           0.79149401513459    2.09999442097832    0.04763166134798
H           0.06988441232711    0.65252333147230   -0.43517962053232
H           0.02548074062148    1.04565479634015    1.20221397022364
