    26
        -50.46696988  Gyration_radius:  2.66576738759 Dipole_moment: 3.093
 S          -1.04575867528102   -0.69243771201638   -0.94317622670828
O          -1.26069343994812    0.38545620665206    0.01851030393346
O          -0.92179563012808   -1.98709593346614   -0.27071014510484
O           0.10544686851488   -0.42151631695736   -1.78333681943260
O          -2.32294099206667   -0.73938207082452   -1.83732766571871
H          -2.24778211455544   -1.59962561261559   -2.29604584607734
H           1.18510462998463    0.68391035069108   -1.39744519522733
O           1.85692183734059    1.32837007525831   -1.04644350782363
H           2.56005034468258    1.35406622395206   -1.69646782647715
O          -0.23026465388698    2.94193393172859    0.01096340795534
H          -0.82663440869233    2.17757862257426   -0.05497220496492
H           0.55382188793382    2.68612972377912   -0.49450303868303
O           0.52761972263633    2.81560295953858    2.57614320377667
H          -0.21922461366056    3.02567143760429    3.13789323988689
H           0.25130243866283    3.04736335238824    1.65619098379248
O           1.00171206467596   -2.19310919085861    1.54426442088283
H           1.58993707058041   -2.87044893046100    1.20748264584315
H           0.23531194795952   -2.17240759598717    0.92665199869374
O          -1.80216001087568   -3.27621908531861   -2.36998768942433
H          -2.49401245253084   -3.89067329130339   -2.11426610034242
H          -1.33325151281355   -3.02658080765383   -1.54656248186437
N           0.99320567676887    0.47767121907288    1.38408409079227
H           1.62910735824661    0.77657066437006    0.62497414368754
H           0.03635883391170    0.42452165224765    0.93805328166644
H           1.22063412055606   -0.47780216066408    1.71343345774736
H           0.95798371205416    1.22245228829167    2.11259954916335
