    26
        -50.45930875  Gyration_radius:  2.54591035878 Dipole_moment: 6.936
 S           1.03704025702214    0.90835205094915   -1.10061454806119
O           1.15617410840963    0.77226586095994    0.35510435906124
O          -0.11162357803310    1.67481056275735   -1.49173041124060
O           1.05069233244503   -0.43710987347133   -1.70670780666329
O           2.31392234328208    1.64812075878847   -1.60043576104503
H           3.02379655012622    1.00570330265662   -1.41060129262657
H          -0.16555936627619   -1.38647816602501   -1.33445659060017
O          -0.91865931100602   -1.95711342649092   -1.01797612547588
H          -0.98501103683761   -2.67886897810390   -1.64486496207500
O           0.06956128244775    1.44720759847537    2.87901729607860
H          -0.81725115297598    1.68160074233650    2.58956707172612
H           0.62781533105594    1.50428409661039    2.09355316518662
O          -2.52330557362744    0.64379748168171    1.68508809317288
H          -3.42673708619748    0.50849871517420    1.97262353310205
H          -2.54786730654988    0.69875738534391    0.68889981621195
O           3.62879311567277   -0.64542977091597   -1.34950390870311
H           4.06415391739272   -0.91742850592163   -2.16046301182903
H           2.67120142827243   -0.81289012114823   -1.47534267260467
O          -2.39711621055203    0.45969745931160   -0.91071017746738
H          -2.09721954003280   -0.44620018658865   -1.07179363883548
H          -1.64985529084477    1.02857573456740   -1.19257891532704
N          -0.40549245433213   -0.97330694271565    1.45770483424998
H          -0.65660955794569   -1.63685623157845    0.70840889464005
H           0.29377139810537   -0.26986482332961    1.03508225916074
H          -1.24494579527353   -0.40301418361567    1.73299385726835
H           0.01033121624148   -1.41711053970593    2.26973665270766
