    26
        -50.47294816  Gyration_radius:  2.44378273024 Dipole_moment: 1.553
 S          -1.73217947967946   -1.02273572584845   -0.28292556720900
O          -2.14988344381269    0.27639692978267    0.22152909113565
O          -0.77853484760643   -1.67665405110135    0.59640294614064
O          -1.29087587440990   -0.95777201215138   -1.66152444631400
O          -3.02019678390448   -1.94391924689016   -0.27154461071559
H          -3.53929007182440   -1.53981031772834   -0.95772398848434
H          -0.21071493088203    1.96135936321883   -1.33972120086299
O          -0.65333946242433    2.32508701905391   -0.55567629769443
H          -1.33009056874039    1.65552443517821   -0.31421182921516
O           1.68575520796756   -2.39650651182160   -0.04347538632426
H           1.93102864961219   -3.01131224950802    0.64947230568846
H           0.73852969083408   -2.18994362188227    0.10180868618853
O           0.64819125073744    0.63719582379660   -2.30181476100131
H          -0.06465411500780   -0.01298736779290   -2.06868019909632
H           0.82429141888121    0.50671745343365   -3.23474451916204
O          -0.76042132754151    0.07438403924755    2.53632011769685
H          -1.55050241366848    0.49215489042620    2.16829419003342
H          -0.68518582552280   -0.73348546600270    1.98505506440081
O           2.48560541928673    0.14186465190282   -0.33237203083297
H           1.97555737533519    0.35588373264716   -1.13571234152646
H           2.33630500448289   -0.81878397856546   -0.20233305918694
N           1.04639958907084    1.58932747377553    1.31249375250607
H           1.55036533589318    2.27556367944571    1.86193720007257
H           0.39761602706605    2.05098293551620    0.60363835508715
H           1.71606348454879    0.97914354140416    0.74321141350722
H           0.43016071130918    0.98232457046487    1.92229710516114
