    26
        -50.46474298  Gyration_radius:  2.4853815987 Dipole_moment: 5.302
 S          -1.08464460585185   -1.27511696767490   -0.19524954257510
O          -0.32928798605272   -2.48857129776566    0.07890890510959
O          -0.74044044077322   -0.71687689171574   -1.50945424194180
O          -0.87027612662705   -0.27140017328261    0.84225378723645
O          -2.58364817135696   -1.65053568492244   -0.20654779721283
H          -3.06809464170128   -0.78121492627084   -0.18542714229110
H           0.04815336242706    0.94390837636996    0.81043874473655
O           0.66445648739045    1.74067278329798    0.79232745987273
H           0.27734484932944    2.36826969536260    1.40589587219702
O          -3.71377291217418    0.69228304900774   -0.35289374649344
H          -4.33088594133492    0.68184761264742   -1.08790783570474
H          -2.94371581416884    1.23451396797141   -0.65061871050407
O          -1.50333627774563    1.79082575805472   -1.32950839985192
H          -0.84008788339586    2.12438276765782   -0.71720997783288
H          -1.21976893357403    0.87380709780805   -1.54375281044037
O           2.54568198386859    0.32122520843148    2.14294016984898
H           1.86748351987514    0.88808250908362    1.71419865929018
H           3.36929328284384    0.81056336905156    2.11652362443209
O           1.71676306961990    0.19110501645900   -1.42239679241258
H           0.81825557420306   -0.15444019782718   -1.64179569139745
H           1.55803810177895    0.98015342601055   -0.88991865516618
N           2.09732854614145   -1.68129822632792    0.38021257891328
H           2.78719707193367   -2.41704519632993    0.27306534457662
H           2.11799950021062   -0.98769559258481   -0.42806655456351
H           1.10122612117904   -2.09161195924974    0.35874874694062
H           2.25873827396021   -1.12583351315517    1.24523404534393
