    26
        -50.46942756  Gyration_radius:  2.44030813644 Dipole_moment: 3.755
 S          -0.95287802005693   -1.47480668929696   -0.24406518208846
O          -1.84956296580020   -2.08476106666806    0.70331739835712
O           0.42784993841508   -1.40132828272006    0.29174353918602
O          -1.38441942245062   -0.13289310336024   -0.63345875690360
O          -0.89283628303661   -2.36045950141735   -1.51155499299700
H          -0.23924870748557   -1.94159487448832   -2.13096844266335
H          -0.62743504464892    1.23526625431458   -0.85974775359791
O          -0.09792322154564    2.06699221875067   -0.99270790086661
H          -0.54009272292320    2.55305335063845   -1.68936051262916
O           1.47033067415716    2.11470978427392    1.22017918981507
H           0.85599323482690    2.35932021361727    0.50499348398816
H           2.18951232127321    1.65022961055492    0.77616889257793
O          -2.51312505236624    0.15816166281309    1.86608782990825
H          -2.46552880366367   -0.77983786744623    1.56685056035479
H          -2.60197925064661    0.64199973924652    1.03747923603735
O           1.96864748378353    0.23852666007507   -1.08901189022195
H           1.36032591651701    0.98534159280006   -1.21707354438683
H           1.48361571720333   -0.39461076406056   -0.51401170493308
O           0.98299428562518   -1.31527097075714   -3.01456886203654
H           1.47090764574850   -0.70508564116671   -2.40862964728397
H           1.58937877056090   -2.02655396637031   -3.22968103108793
N           0.08076103233945    0.13143159727645    2.34626243623219
H           0.36052611706320   -0.19377564817806    3.26539894344064
H          -0.97170659321108    0.27561408341835    2.29617452588998
H           0.60615257192456    1.00051155100707    2.06429389684212
H           0.28974037839239   -0.60017992285296    1.59589027906966
