    26
        -50.46546331  Gyration_radius:  2.5913398216 Dipole_moment: 2.579
 S           1.52127312811506   -0.40869374423617    0.49280927635141
O           0.41596350782813   -1.32845252944075    0.62843198892481
O           1.17100557789599    0.93369320666205    0.94702356376167
O           2.05376414442456   -0.37521950650194   -0.87315438702897
O           2.66967897529071   -0.93389139133402    1.42089277884518
H           3.44171715367423   -0.39807730561150    1.15468555064648
H           0.63106704340496   -0.11796758416477   -1.56125124190421
O          -0.22419271522580    0.02348649028515   -2.03726680349173
H          -0.01992286682546   -0.07136430769005   -2.97027939392222
O          -1.96604639677056   -1.08833357506069    1.73106586257137
H          -2.40255722915901   -1.25408842366863    0.87557369589935
H          -1.03455277806899   -1.33165467571377    1.54115505854674
O          -2.30954401871220    1.53644258363677   -1.12536634196007
H          -1.49569146187431    1.20620209776424   -1.54736326575848
H          -2.92073080899628    0.79330580176325   -1.16343060063816
O          -2.34072013412367   -1.42928112561855   -0.96425256545548
H          -2.17044626816972   -2.37226917384811   -0.99370546849718
H          -1.50516927790030   -1.00882414421206   -1.24153316257240
O           4.40707620833835    0.44097854644070   -0.04934656354024
H           3.58660631527990    0.30162438132525   -0.56585434853869
H           5.08460837716834   -0.09309303736962   -0.47020773079317
N          -1.33483009260617    1.42434168618155    1.37213754816283
H          -1.69808420650287    0.46619500627797    1.67354548690055
H          -1.51364077020701    2.14641063331036    2.05989144277250
H          -0.28302886381825    1.28932859868826    1.22387948678247
H          -1.76360252241016    1.64920150215157    0.44192012397721
