    26
        -50.46790040  Gyration_radius:  2.45527065698 Dipole_moment: 4.116
 S          -0.90323660573232   -1.55793676498414   -0.65757960324715
O          -1.84177267235878   -1.09550056735382    0.35620075892265
O           0.32181696475832   -2.08280844179619   -0.10983702167014
O          -0.65858404899554   -0.52288187751076   -1.66101464828105
O          -1.65424410260312   -2.73793885793004   -1.39648719466115
H          -2.55116188156102   -2.54393698640680   -1.14724798758976
H           0.70293959332061    0.38998891920267   -1.54942536652188
O           1.46503325012740    1.00965464049845   -1.44868067212220
H           1.76893009595268    1.20827828960751   -2.33570075002407
O           0.02764928175620    2.53442095916322    0.31384628136682
H          -0.79452972192756    2.45713995090195   -0.21133258368211
H           0.71932404740554    2.15728968181648   -0.25774938843371
O          -2.03436275787199    1.70387434628641   -1.20921479151640
H          -2.31023718736162    2.01852433846874   -2.07124713158656
H          -1.61269424040286    0.83042746329484   -1.35600004913520
O           1.37526191054772   -1.20711239680134    2.25826724704975
H           2.16287339594861   -0.95468802136784    1.73435969846837
H           0.92166244274323   -1.82536652246162    1.66093350602587
O           2.85981076544336   -0.87431960800157    0.04405296910650
H           2.19571823795882   -1.53158771694749   -0.20868980469698
H           2.59134885966231   -0.06851833360516   -0.42206729317519
N          -0.55383987828193    0.55341911801423    1.95418967624544
H          -0.27120529523315    1.40677091123967    1.38080280425940
H          -1.17219908482857   -0.05416288221147    1.35250132871543
H           0.29262507331985   -0.04825466484029    2.19258245339273
H          -1.04692643201498    0.83522503458278    2.79453756265850
