    26
        -50.46758769  Gyration_radius:  2.52021742258 Dipole_moment: 5.348
 S          -0.95469055074625   -1.04580788438260    1.63085202655562
O          -1.85593763578564    0.05208873062620    1.28238302154493
O           0.43244229155435   -0.64108027916630    1.59495231758543
O          -1.23977430004395   -2.22987755062241    0.83992225464544
O          -1.27426560230918   -1.42592684143270    3.13203688142236
H          -2.09473640179009   -1.90291791799893    3.05995965140680
H          -0.76156974828572   -2.13107417741519   -0.67708360671391
O          -0.47755441436453   -1.95210280688222   -1.61343173889243
H          -0.68260628682744   -2.74445796495771   -2.11214100039126
O           2.72753169388341    1.16688295483077   -1.34252900934050
H           3.45554598896518    1.43363860973963   -0.77956914595100
H           2.51507194880381    0.23638570582131   -1.08621466351938
O           0.44471732681590    2.43725220706392   -0.90306131025528
H           1.32323166032197    2.05228699033227   -1.13953098187226
H           0.42109184845609    2.45496014842906    0.08218918585831
O           0.13609032203105    2.00081899298085    1.71260684317056
H          -0.81330858050172    1.95260859158580    1.85841409942082
H           0.42698249100128    1.06955735352047    1.75510578675262
O           2.00560305944029   -1.25048360751389   -0.51385791632092
H           1.57325238276134   -1.08042160959357    0.34220415691908
H           1.30461605481453   -1.59667565621553   -1.08338379287634
N          -1.33622260921491    0.62347292605009   -1.23082932054044
H          -0.55724826176187    1.40933976244946   -1.17924039548595
H          -2.12768889275813    0.94159597171410   -1.77974641124367
H          -0.95806847488479   -0.25742245857224   -1.61541757070995
H          -1.63250531958663    0.42735982958273   -0.23458933116895
