    26
        -50.47004906  Gyration_radius:  2.40540843787 Dipole_moment: 5.451
 S          -0.79811977167085   -1.34713574568534   -0.67400934628589
O          -1.60277492582440   -1.70654961878360    0.47673805218249
O           0.62491034563946   -1.30767780276961   -0.35239136814908
O          -1.20705290213885   -0.05335890880120   -1.24247224343478
O          -1.02765551855943   -2.44387685252693   -1.74876626429799
H          -0.59033783626151   -2.09516483087119   -2.55261086060004
H          -1.24462318234873    1.04553929875842   -0.05228188874686
O          -1.23241962394491    1.71450652925124    0.68049057977502
H          -1.93773260757304    2.33261232257272    0.48135986078068
O           0.04875932872467   -0.78840093749652   -3.49347964831423
H          -0.52354364558522   -0.25818369844440   -2.91360960895903
H           0.95030303499390   -0.49389274042265   -3.31872875623537
O           1.60307301227876    1.93989792268677    0.96304942882741
H           0.64709607597397    2.08426047284644    0.94725040024687
H           1.83848744095045    1.70456318155073    0.04590302291954
O           1.68671662532532   -0.50919615763216    1.99937519015187
H           1.52019899968777   -0.98200118963652    1.16176992394409
H           1.87043768986806    0.42208204489733    1.72555794067215
O           1.49444564595943    0.88005135730830   -1.55341434047280
H           1.28373668587695    0.02307788476814   -1.12221736933449
H           0.64125590511323    1.28259592035233   -1.73956689021730
N          -0.82606554127438   -0.28331921932625    2.49792267410878
H          -1.06447155614881    0.64942128177542    2.12533621735639
H           0.26101324364756   -0.39734602149246    2.45266511918345
H          -1.20728544126555   -0.44000659046088    3.42385519568697
H          -1.20835147146710   -0.97249789238256    1.78227497919673
