    26
        -50.47336958  Gyration_radius:  2.47391472666 Dipole_moment: 1.163
 S          -0.56848442388788    1.30038666680627   -0.15445124454021
O          -0.36660957492002    0.53615870826166   -1.38017226907795
O           0.68889498252241    1.52927105552252    0.53591348533556
O          -1.55553736953720    0.65711321427559    0.71168786924927
O          -1.12105787814850    2.70442024970118   -0.54520673758713
H          -2.05050322589023    2.53200687719056   -0.79537646797840
H          -1.66422202406954   -0.95640967104797    0.13958068571785
O          -1.61266209527854   -1.79535628401616   -0.35765034471139
H          -1.56246490975981   -1.51911428392487   -1.27652870953536
O          -3.55242437588181    1.67564658977690   -0.65263485168128
H          -4.24397087267779    2.06089742670735   -0.10988055974503
H          -3.01445761205874    1.10972100819186   -0.06286100875940
O           0.63870509375165   -0.52638011358551    2.23462094411789
H           0.69047720201228    0.27649171099536    1.67959336366509
H          -0.26989739454766   -0.54450931963260    2.54493829550142
O           0.81736758559997   -2.55880512745009    0.47388886599637
H          -0.12307674373736   -2.51347908057266    0.19233647852873
H           0.86121840865805   -1.96524490290550    1.25371566805678
O           3.22180774558098    0.78178256131045    0.26283525032911
H           3.41649516334421    0.44276546682273    1.14013184249237
H           2.38108464521973    1.27477140191392    0.35667250166180
N           1.81896618020379   -0.91079193944626   -1.26464590776888
H           2.52778717129016   -0.31997615646618   -0.76479069381336
H           1.49587696030026   -1.69894682869485   -0.59837392581275
H           0.96646527566127   -0.30219824123675   -1.42253119326325
H           2.18022207624477   -1.27022098849488   -2.14081132638158
