    26
        -50.46627186  Gyration_radius:  2.44597474069 Dipole_moment: 6.896
 S          -1.00669865192471   -1.71408910568296   -0.11317757559847
O          -1.60793972228622   -0.37784488639530   -0.18879459575344
O           0.12946219096261   -1.68871949397413    0.79670366815193
O          -0.74644721166792   -2.30101297435346   -1.39601297609596
O          -2.09937285233995   -2.63658200353695    0.57400791380587
H          -2.29962792666546   -3.22025231439437   -0.14900806931690
H           1.40088327716488   -0.74887412178646    0.07786806568873
O           1.96473022441723   -0.12065978580069   -0.40719294347873
H           1.78993142156114   -0.33132903926662   -1.36087783796168
O           0.95758878573994   -0.67760220661575   -2.77276894067309
H           0.39001543532300   -1.39991188699251   -2.45515052446253
H           0.36161322366726    0.09079961496460   -2.85291394689477
O          -0.77685209808873    1.35214019785089   -2.15780728801541
H          -0.18412618004054    1.87281850801078   -1.60010351364802
H          -1.22526271240187    0.73058639499348   -1.56223296905100
O           1.07345763774331    2.27250505807168   -0.15594640497908
H           1.80707963190865    2.88700040066887   -0.18430406425116
H           1.47469099219622    1.34832566878090   -0.27093859515666
O           0.49627772057107   -0.44106626450768    3.06352460553776
H           1.44893764336260   -0.43085907296751    3.17787706231700
H           0.32841465352431   -1.06609136500299    2.31948145416152
N          -0.74486383776634    1.34640042658675    1.54425502426060
H          -0.04369480600226    1.88882390220914    0.98526574753636
H          -0.25089951801067    0.77804350674081    2.28151321213369
H          -1.45826747434618    1.94772801708989    1.94110300587901
H          -1.17902983660061    0.63972283530792    0.86563049586351
