    26
        -50.46226284  Gyration_radius:  2.50491041071 Dipole_moment: 1.638
 S          -1.80465667799162    0.17787497567628   -1.03500183787488
O          -1.10236296981159    1.21577372840396   -0.28904589110927
O          -1.97608548615214   -1.03329056757451   -0.25646857332996
O          -1.23819581917510   -0.06532726804417   -2.34201349515258
O          -3.26236629319794    0.77907033477288   -1.27372020986382
H          -3.66444828103890    0.16156475252890   -1.87726293304318
H           0.06212042191415   -1.00727712253112   -1.53226843357663
O           0.93113780581879   -1.00815243666773   -1.09504443681249
H           1.32167494610665   -0.15657108444799   -1.37886585433293
O          -1.73641168092241   -0.29818285343263    2.21574947072666
H          -1.94617450977161   -0.67150923600977    1.32313132969079
H          -1.96064082142930    0.63325546607179    2.15163286521362
O           1.04255985110420    2.20300415062654    1.09464179293597
H           1.59165518705311    2.38143128463870    0.32438353775729
H           0.14764342037282    2.08745410918788    0.73317479931378
O           1.07640547147280    1.60095363263794   -1.78636847461963
H           0.21240406950211    1.54796863311264   -1.32647224523234
H           0.85807181758879    1.55772586479605   -2.71965235672476
O           2.50939602355872   -2.47631785013181    0.80190944583640
H           2.09543059735037   -2.18647913693487   -0.02309863490621
H           2.80606919802004   -3.37543783197257    0.65838875840682
N           0.82276544783169   -0.42091857947892    1.55475274488154
H           1.50093082889737   -1.05508054764466    1.97629510733500
H           0.72360859022002   -0.70162762048812    0.54884651225315
H          -0.13777362630629   -0.47030108138967    1.99327830367637
H           1.12724247902464    0.58039629428953    1.55909870856671
