    26
        -50.46903795  Gyration_radius:  2.41606630578 Dipole_moment: 4.603
 S           1.37518076397391   -0.11790511015946   -1.13248045516769
O           0.87209986501270    0.28989711957830   -2.53781206140780
O           0.54836301905143   -1.25994260304979   -0.68960045035068
O           2.76543092005432   -0.44936686228331   -1.22035386507585
O           1.12109222337516    1.02374031569774   -0.23042477909346
O          -2.03373905109133   -1.34905534608577   -0.63306007749781
H          -2.32313412185964   -2.21895202183878   -0.91073987184632
H          -1.04015881907512   -1.35769720990327   -0.68547153216381
O           3.08177455931944   -1.03308443108005    1.37268338775458
H           4.00186156705404   -1.27120331281254    1.49987338218129
H           3.00506596398012   -0.82932889754630    0.41914033757052
O          -2.03595250817604    0.16923563778499    1.67092497525469
H          -2.26712504111681   -0.43351090831804    0.94270289686809
H          -1.89975906577622    1.03050207236231    1.23867470881044
O          -1.13140042629573    2.24527015869747    0.09619239918634
H          -0.24211779892616    1.82011273433679   -0.04112058827853
H          -0.96690117440713    3.18468755706646    0.18585803250942
O          -1.64444667303873    0.85681247584017   -2.20539246876872
H          -1.99864965685813    0.05087810827533   -1.79091457121063
H          -1.62941419658829    1.51945550249801   -1.49299923675695
H          -0.10071487285094    0.52449486710411   -2.48323707375057
N           0.50241308618516   -0.48956894862164    1.78480579392195
H           1.08291197728345   -0.80025678114793    2.55794988593502
H          -0.51735596412388   -0.27574109082999    1.99189950833371
H           0.92867899329221    0.33834396069134    1.30658378223494
H           0.54599642157158   -1.16781698628128    0.98631794081931
