    26
        -50.46610760  Gyration_radius:  2.36648784222 Dipole_moment: 2.673
 S          -0.37538708106362    1.51830341600777    1.05744997052336
O          -0.69442518277489    1.16462674013889   -0.30728935140760
O           1.01380197093751    1.23384644928751    1.39562923171069
O          -1.29614099214887    0.95530152044112    2.02558491494375
O          -0.53377045128232    3.09341665975663    1.14336842480220
H          -0.35041973881161    3.27413426920830    2.05956808016369
H          -1.90685000825919   -0.34162350819008    1.26466562961561
O          -2.20482475112526   -1.10424599672691    0.71231005228382
H          -2.87192773248487   -0.74329807205330    0.12550857201749
O          -0.73778881132682   -0.07794046541131   -2.81191098738711
H           0.11745109613161    0.39895152634153   -2.87883031204378
H          -1.25064558430261    0.49109716970110   -2.22449336346198
O           1.40446600348095    1.31655885574646   -2.02907172877473
H           2.07887246721317    0.76848509033357   -1.61597362619435
H           0.74009684636951    1.47816317255936   -1.33486204887033
O           2.22745963446746   -0.59641938383960   -0.03443940471921
H           1.84819819107828    0.16637040423964    0.46605483301963
H           2.60461566696844   -1.16318415328730    0.64320705270443
O           0.46219848314459   -1.38009768433570    2.03545433976391
H           0.60173153963379   -0.42168132309189    2.02695920083070
H          -0.37050874675302   -1.51515667926835    2.49118229592071
N          -0.09634196322221   -1.72805398001586   -0.84627434633379
H          -0.85527870531285   -1.54486347538203   -0.13802322310316
H          -0.34908506426729   -1.17422978780181   -1.72031091184627
H           0.81153960576723   -1.34642524092225   -0.47392974782789
H          -0.01703671205925   -2.72203553343649   -1.03153356633087
