    26
        -50.46130423  Gyration_radius:  2.51617738839 Dipole_moment: 5.755
 S          -2.00950616049082   -0.38766826516279    0.61059175339950
O          -2.26586725761902    0.64838021010719   -0.37899643879815
O          -1.15250217038274    0.07703915501872    1.67932112832017
O          -1.53142531209851   -1.61753858261683   -0.00952079059057
O          -3.40219944239367   -0.78393164796777    1.25005714594749
H          -3.45230772618124   -1.69926662814314    0.99641526196972
H          -0.24327899261565   -1.59939039706729   -0.91566891454350
O           0.52796118372739   -1.51209094153788   -1.54446925854472
H           0.66143589892870   -2.38496854124394   -1.91708484911422
O           1.28750695146892    2.72223467006860   -1.11495007768323
H           1.14897499155422    2.44066145572908   -0.16045912415819
H           2.22623060862671    2.60801629829080   -1.27523629990801
O           1.03995525823134    1.62824420593711    1.20713889824488
H           0.17500968153305    1.25338254630959    1.44302716200283
H           1.60950897174898    0.84557208937249    1.03035718621106
O           0.65322266700811   -1.70172854977927    2.49301831240427
H          -0.07584261124930   -1.11993783627532    2.19265951014440
H           0.88561421512981   -1.39392302589519    3.37121618992006
O           2.23877149246901   -0.68413260595770    0.53495981545235
H           1.82437866017633   -1.18463968649253    1.26573564294400
H           1.77799070838549   -0.98458914716603   -0.26141099192810
N          -0.38031088655329    0.96891486060934   -2.12595824654417
H          -1.18478552249395    0.90566711486363   -1.42115805631859
H          -0.74217321752187    1.20141068529812   -3.04439628757042
H           0.30477175210738    1.71552752585804   -1.78333999202364
H           0.07886626849476    0.03875502784497   -2.12184865923925
