    26
        -50.46151965  Gyration_radius:  2.56296835706 Dipole_moment: 3.534
 S          -1.13601091360812   -0.69061045248112    0.76412083685161
O          -1.42396121529992    0.46798150442616    1.60074776393590
O           0.23841944678116   -1.16468945184745    0.97435795010958
O          -1.36459537180402   -0.40729082125083   -0.64891226860598
O          -2.10156114823857   -1.80580081134601    1.21700743212834
H          -1.90848734500601   -2.61223694907910    0.66223241115773
H          -0.90433964888683    0.97256309577774   -1.30202200469878
O          -0.62382157443233    1.86798154800187   -1.63076313384557
H          -1.35701013524986    2.19566870304217   -2.15337833051714
O          -1.39210651603238   -3.86769443890516   -0.19299036406795
H          -0.70817556211434   -3.44107551854173   -0.77049505221661
H          -0.92098367617863   -4.48029633878129    0.37568290595389
O           2.15277478319567    2.43921636013718   -1.15805971798692
H           1.40619744632139    2.15122531075786   -1.69382543472058
H           2.44885272771980    1.66467998962690   -0.66809565749250
O           2.12238773355106    0.62532720915406    1.07014568248945
H           1.43896489623579   -0.09140149143226    1.02179301136325
H           2.72271456988051    0.36945801362377    1.77164220485125
O           0.40869329727987   -2.35318149375525   -1.38006510991510
H           0.57637215539260   -1.95886871404248   -0.50055627926915
H          -0.18516829554836   -1.71759870678510   -1.79650031408230
N           0.10468993628650    2.40402251627444    0.90166843268227
H           0.04416134378585    3.30227604202886    1.36807663641907
H          -0.09797879920394    2.47909194045986   -0.12068808335392
H           1.05071238151044    1.97649945002713    1.00200909376765
H          -0.59074052632813    1.67475349490182    1.28686737906794
