    26
        -50.46772520  Gyration_radius:  2.51029465622 Dipole_moment: 4.122
 S           0.52751085395378   -1.46328996030474   -1.30734479862245
O          -0.56618920441530   -1.81279739247418   -0.41077062376782
O           1.64670066285690   -0.86872826296025   -0.60736863102400
O           0.05977057846678   -0.67478103812342   -2.43415523260100
O           1.06095307181265   -2.82533593463306   -1.91204511853113
H           0.31023543937287   -3.09036393017659   -2.43102230043571
H          -0.31228587205890    0.82316975889598   -2.08130235399892
O          -0.55260551085649    1.75868144917916   -1.83810411137386
H          -0.46731257173160    2.27118299334970   -2.64386473600110
O           1.51156243356085    1.76337598155634    0.03141213244486
H           1.74386186481024    0.85826156008178   -0.24181941046981
H           0.78235493944619    2.01599819376125   -0.55384845522606
O          -2.78201448790661    1.30305567693441   -0.41175987938018
H          -1.99791442347274    1.61182028928917   -0.91345501229393
H          -3.23765767061294    0.69081429080558   -0.99278474029378
O           1.90009722481895   -1.37206251519112    1.98469622367130
H           1.78203480531913   -1.27702995048783    1.01509690897260
H           2.83823254941121   -1.51450643095943    2.11972740960620
O           0.66446671887831    0.98080593229901    2.42556765573199
H           1.02465066671379    1.45100889121192    1.63655113920766
H           1.20005009576229    0.16312518950788    2.48633822228268
N          -1.44339793888960   -0.15848003394593    1.42989896390404
H          -2.03239158271418    0.49359343408362    0.86585806701466
H          -1.05022645894065   -0.87091432162425    0.75465340599254
H          -0.61337842282873    0.36932151720742    1.89069596370415
H          -1.99710774066908   -0.62592535728072    2.13914930135767
