    26
        -50.47105899  Gyration_radius:  2.43177766042 Dipole_moment: 4.629
 S          -0.76651440867847   -1.03592430182645   -0.72817607478920
O          -0.50424367461211   -2.42063017175632   -0.99976814915332
O           0.37295097509263   -0.17100278595363   -1.10786579743662
O          -1.09867262993487   -0.78564424956269    0.68127059850248
O          -1.96768608266611   -0.58686952571485   -1.58573835514179
H          -2.09645644192026    0.39025143330973   -1.39370815955538
H           0.06804955532690   -1.38384325164469    1.86879906002581
O           0.97064354010420   -1.46362547632847    2.23672600585004
H           1.40384488530166   -2.11849349385354    1.64558417287200
O           0.24154577165782    2.10030138016978   -2.46047962966116
H           0.17504272272190    1.93081891106761   -3.40144044127151
H           0.38310665985226    1.22727566400191   -2.03564132286978
O          -2.06068931545850    1.93930121927240   -1.07027164454883
H          -1.77355344182103    2.04516102148333   -0.14790900125816
H          -1.30078284948637    2.22429162160094   -1.61843011538533
O          -1.05679834985203    1.65139242830708    1.49517861235863
H          -1.63707531562709    1.75555573024471    2.25062384048603
H          -1.14143878158299    0.69694831251702    1.21240712900662
O           1.76898072534524   -2.97574519316486    0.20253894976015
H           1.84549786292362   -3.93169581221245    0.20420909807549
H           0.96242987944234   -2.77582417560857   -0.32601463634227
N           1.47842495099336    0.76797505543145    1.02662030390425
H           0.76291585692921    1.43413078762640    1.35395806428229
H           1.13132455879413    0.40874645125163    0.07774291175114
H           2.39971280755791    1.18528633314405    0.96215067925406
H           1.43944052960600   -0.10813790179852    1.65763388128185
