    26
        -50.46497287  Gyration_radius:  2.60894664908 Dipole_moment: 5.243
 S          -1.82999541972132   -0.83421695272363    0.11656725213052
O          -2.09863871662122    0.46432966900214   -0.44608394915650
O          -0.96490540971497   -0.72895939878207    1.29603280063133
O          -1.30438190366427   -1.79778090731486   -0.83710515031764
O          -3.20338268859248   -1.44788303881138    0.61392298307182
H          -3.07506638630030   -2.37557823713740    0.44326801512029
H           0.01528846378261   -1.27835433959044   -1.58265342965750
O           0.84394844390531   -0.87706743181411   -1.95576779834130
H           1.38336789482914   -1.61082949153498   -2.25375973146581
O          -0.94775273182934    1.17336531013846   -2.79959773689939
H          -1.54750371404113    0.83478338238748   -2.11096519736956
H          -0.23942288914068    0.52123653361273   -2.85760828333870
O          -0.54623859376878    2.89377233506361   -0.78139861585522
H          -1.37749345820810    2.62976524966619   -0.37113624675937
H          -0.61267546823328    2.52375719072748   -1.68905664919812
O           1.18116283793212   -1.57123560364401    2.65270726015774
H           0.37687114366647   -1.36816727026648    2.13364566724482
H           0.89985199147898   -1.57850816158566    3.56937338154344
O           2.83404425291923    0.43818324119907    1.96848153522431
H           3.71114967810080    0.09084812510827    1.80267587935037
H           2.29395476151671   -0.31545596791320    2.29886021066037
N           0.86155626161673    0.85823229653261    0.16002932604721
H           0.12327529534172    0.33140856137078    0.68130629281460
H           0.44390116628774    1.78384094298942   -0.14257755654299
H           1.69643883255801    0.94341795909903    0.77238166876177
H           1.08264634588807    0.29709598423476   -0.68154188781737
