    26
        -50.47271883  Gyration_radius:  2.48556079566 Dipole_moment: 2.776
 S          -0.55558809794949    0.58617658758076   -1.08213767407625
O           0.48358248198924    1.38137590557851   -0.43365645613609
O          -1.06426374209258   -0.43386474426978   -0.17028010608066
O          -0.12437033055283    0.03213694017597   -2.34783979547665
O          -1.77421034608375    1.54289626024148   -1.33829927366701
H          -1.54857422968249    2.02500293058952   -2.16070949099281
H           2.06802801611869   -1.02231791681409    0.13757657992765
O           2.31225089215087   -0.21905857190909    0.63761176693997
H           1.81980514018122    0.50102102626542    0.18865002533264
O          -0.75920362327336    2.18835937823583   -3.69006287872149
H          -0.31572308199024    1.36721351276311   -3.39018680320528
H          -1.26324329026510    1.95353845434468   -4.47260663487272
O          -0.87007947576323    1.61150722036761    1.78620197357914
H          -0.32279873306908    1.71801501108583    0.97413938055136
H          -1.68874239549197    1.22519995282202    1.46288188851564
O          -0.74022740618343   -2.37553146139023    1.67557052873029
H          -1.12364628154403   -1.74120059626727    1.04304436908277
H          -0.16274185073117   -2.92914335958468    1.13981473412596
O           0.94949546695192   -2.09829722566531   -0.77967816418964
H           0.16468029700150   -1.52981118088873   -0.66067141721218
H           1.14774643626149   -2.02973267154209   -1.71676469492035
N           0.68214682149405   -0.35502947149484    2.67736926634841
H           0.04281539292168    0.46578524221086    2.47662559743730
H           1.46757067812238   -0.29939193407664    1.94596968958334
H           1.03754493925216   -0.33264000525320    3.62612156052762
H           0.13774630222480   -1.23220929313960    2.47131601888302
