    26
        -50.46404219  Gyration_radius:  2.5058991154 Dipole_moment: 3.735
 S          -0.46286527278293   -1.99871791430660    0.33219188423270
O          -1.31293327243093   -1.05811170377378   -0.41174414339477
O          -0.44803741422202   -1.68826505924860    1.73622398483226
O           0.85182605457298   -2.09749035791907   -0.27863404725510
O          -1.12744092754690   -3.42189575291252    0.16200505623494
H          -0.81305824528539   -3.68700362984206   -0.69600304368129
H           1.55505660421457   -0.66144837318618    0.22860821490592
O           1.90385907262249    0.25372253113757    0.31497914473608
H           2.74093419585322    0.23390818299415   -0.16282079025470
O           0.12607728381035    0.81914145029337   -1.69536025642268
H          -0.45546115124580    0.08090740968963   -1.43376491866334
H           0.84292840886789    0.80242577223412   -1.03205718065560
O          -1.25727785104567    2.88699589139583   -0.81852965932609
H          -0.64849099249813    3.61954291027698   -0.71327686615519
H          -0.76894860993874    2.18767817069391   -1.32509660822336
O           2.50267431406383   -0.89942002182649   -2.24447980538550
H           1.81602257558771   -0.34604323504809   -2.63061654014297
H           2.03935835804199   -1.53726624565901   -1.68542859689046
O           0.37242923957225    0.69622430788261    2.55359681848520
H           0.16367040822505   -0.25929347666781    2.54818711176326
H           1.11222125918290    0.77650820299094    1.93101019690381
N          -1.76805521997733    1.07330744634027    1.07435563795712
H          -1.70379906877482    0.18454681860456    0.50449891436838
H          -1.67394113266441    1.88663510179750    0.41402979230809
H          -2.64750111943140    1.10431400909726    1.57813348179285
H          -0.93924749676560    1.04909757502525    1.74999222794086
