    26
        -50.47191000  Gyration_radius:  2.46889399046 Dipole_moment: 1.451
 S          -1.59976010818797   -1.17635642467588   -0.13843256550739
O          -1.51812541452863   -0.29256586863071    1.00910401778204
O          -0.29482525437273   -1.35631636168096   -0.76390089619527
O          -2.64241148226345   -0.84590202392987   -1.07814979457495
O          -2.00434915565769   -2.60330291684622    0.45547882545199
H          -2.65864517484818   -2.91325290090579   -0.16219575409261
H          -2.01785312586196    0.57311471116236   -1.68577038207555
O          -1.69548814164422    1.45360482207947   -1.96842508979569
H          -2.47993105911855    1.98588747889906   -2.11221759785484
O           1.93821832216447   -0.05098613617413   -1.28810606235739
H           2.32809640418238   -0.47541917261359   -2.05350266633839
H           1.09132702667876   -0.52368330238281   -1.12325394540013
O           0.67355394575347    2.38133194867531   -1.07423185753933
H           1.27485820446509    1.65802846302481   -1.32358768941519
H          -0.18535708115848    2.14297545978884   -1.47567516593184
O           2.44475691983101   -0.11698067231770    1.45336169967552
H           1.95439200907627   -0.94461770975393    1.64267188160603
H           2.57401137514785   -0.11854781182171    0.49089403035574
O           0.66840367075895   -2.13328515921491    1.58903626390750
H          -0.11823837613826   -2.09325400060458    2.13620969619364
H           0.34767554436345   -1.97320865518767    0.68253232520671
N           0.37918769038850    1.50601054182764    1.38191320893554
H           0.48517978506449    2.00420921075744    0.44345378434061
H          -0.41583284902259    0.82390313235350    1.28234617670276
H           1.26569335106623    0.93316832505683    1.54061245010604
H           0.20546295367522    2.15544499305306    2.13983508684405
