    26
        -50.47210210  Gyration_radius:  2.44445036551 Dipole_moment: 5.071
 S          -1.36821189659096   -0.87969996165889   -0.60634437410846
O          -1.46539846368720    0.40296991666477    0.12896663975314
O          -1.91506987335771   -1.96057848283103    0.17192058109705
O           0.03077929022769   -1.09792369215616   -0.98243123782986
O          -2.20028313283528   -0.72574683755848   -1.90325670605689
H          -1.59660986140960   -0.28576368851978   -2.56441649250079
H           0.85183649050616   -2.49469967310979    0.50154948751720
O           0.32045273979074   -2.68429820001017    1.28353497915507
H          -0.59805822417020   -2.69188685311968    0.92951268517895
O          -0.29826727959436    0.40262883505383   -3.24024277173493
H           0.27755546080132   -0.20332696650923   -2.75284597411976
H          -0.25582370138681    1.25059323710641   -2.76070572292266
O           2.09903571386619    1.08124829942513    2.12886621002686
H           2.93482388641845    0.66992091638880    2.35409397504919
H           2.05300517777549    1.08190443163481    1.13376707247644
O          -0.43810821304759    2.32266225943069   -1.30567790454210
H          -0.88015071367027    1.64764663347363   -0.73137631517538
H          -0.99768876481074    3.10014853663574   -1.29076940617218
O           1.77479197135751    0.85562408960313   -0.45773351633259
H           1.20173105032731    0.07834358305733   -0.62699347406087
H           1.26694348705227    1.61170091319112   -0.78186767837711
N          -0.16299643450468   -0.29007514635033    2.30181137744920
H           0.09251418665345   -1.28886980423389    2.03884583568056
H          -0.69589118065765   -0.26595846172888    3.16478572913391
H           0.71931170574346    0.28916165512039    2.36965947551850
H          -0.75022340082017    0.07427444095088    1.49734752587581
