    26
        -50.47163768  Gyration_radius:  2.37111220352 Dipole_moment: 7.009
 S           1.13260101728739   -0.46319852498306    0.93312746416539
O           0.67820642738315   -0.12575669402035    2.27434116295885
O           1.06127111397703    0.70605971665074    0.05070534537715
O           0.32784005021097   -1.55323522399183    0.37136575958423
O           2.59522478308037   -0.92068303656833    1.01614621924502
H           2.93326363615531   -0.80921909520665    0.07457131735607
H          -1.24717717380819   -1.37187045722581    0.39010845813909
O          -2.21707775793361   -1.14006256945641    0.37926081783958
H          -2.68624138592186   -1.96834749318142    0.48987996317805
O           3.08956932353615   -0.41265381146430   -1.44332880528212
H           2.68268802413366    0.45664452313530   -1.35365677747598
H           2.41580370184933   -0.96604708518167   -1.90745219392260
O          -0.77982215674252    2.67266540372110    0.06571304717607
H          -1.14190086167025    2.35632410196473   -0.77597035965945
H           0.09780683948415    2.24823628710658    0.11101067488135
O          -0.98668277194573    0.47687795834237   -1.68326613725622
H          -0.19618793196258    0.49406642821847   -1.10871735065241
H          -1.62061593507148   -0.09768994486163   -1.23898057873350
O           0.87976286610932   -1.65313313420945   -2.24951692860972
H           0.24559119673115   -0.98668079742577   -2.54637415394552
H           0.65985999923631   -1.81582554057814   -1.31221313809364
N          -1.61509920989979    0.98826948843263    1.91245123212733
H          -1.40668505186176    1.77828666515885    1.22789267822006
H          -2.11326235776784    0.22502867463807    1.41041592527699
H          -0.65996850567512    0.57069084450531    2.18733335810412
H          -2.12876788886667    1.31125332646098    2.72515298998892
