    26
        -50.46776375  Gyration_radius:  2.52577944427 Dipole_moment: 1.483
 S          -1.47064002569208   -0.82181898362655   -1.23802266419650
O          -1.89366932982942    0.19638675096347   -0.27309457250929
O          -0.92525978393694   -1.97395423645890   -0.56234019467554
O          -0.61244957229867   -0.25883576492368   -2.26186849432402
O          -2.78143730189350   -1.30359097782724   -1.98579681458915
H          -2.94310927177384   -0.58744486810973   -2.59150873097634
H           0.60038540258218    0.61753165729829   -1.69124488385904
O           1.32956183518489    1.16647296277910   -1.29979738013918
H           1.92875916494361    1.35379086599254   -2.02431869071797
O          -0.61758500274279    2.57161820587723    0.10158868335698
H          -1.25338983463046    1.85519878362312   -0.07044251307042
H           0.17782102073562    2.30656570486449   -0.38654115484398
O           2.01193171619986   -0.60416466298184    0.64536019353290
H           2.01131179264835   -1.42842812937685    0.11280564909694
H           1.92373185659225    0.10988631871723   -0.01508380009977
O          -0.10534542327198    2.18117638839516    2.66210582473435
H          -0.36214920127899    2.48060224540975    1.75067615320364
H           0.77820273717405    2.52039636997013    2.81382088437542
O           1.57361674064662   -2.70941206675536   -0.94441758870396
H           0.62216269800131   -2.46384589507272   -0.92929345692005
H           1.61080064606652   -3.63583973264954   -0.70191596886771
N          -0.32868586323708   -0.32964704747991    1.79798231474383
H           0.63552905450641   -0.52662638312837    1.36744094501458
H          -1.01601899755299   -0.20382457753483    1.01150837633981
H          -0.62399831890468   -1.09562396514188    2.39258259456202
H          -0.27007672824390    0.58343103724652    2.31981529953699
