    26
        -50.46742659  Gyration_radius:  2.40209960683 Dipole_moment: 4.781
 S          -1.07274528839768    1.09552243485633   -0.78172537518266
O          -1.20726652520286    0.65557349553894    0.60683999997233
O          -0.14559966887474    0.04081727965512   -1.49785824124518
O          -0.45443237898201    2.39495668529635   -0.88323825881331
O          -2.33110922370939    0.94203442015932   -1.50768356108120
H          -2.36900851559109   -0.48769624555646   -1.66220336444679
H           0.86936863149728    2.52646223338251    0.02294990923777
O           1.50971287209187   -1.56307247365909    1.38008717165322
H           1.98921965114983   -2.08957062229961    2.02046937021693
O           1.72810962806224    2.51425582798539    0.52246528648082
H           2.14985128349859    3.35387716008317    0.33372613746765
O          -1.14609182121432   -1.93547389918800    0.61005014859069
H          -0.19038494451769   -2.06274624919025    0.73602537684651
H          -1.26839675175257   -0.96787720714694    0.77060491535535
O           2.26730981160252    0.12341173610082   -0.64117702639217
H           2.17077163158603   -0.55976904512891    0.04692708135054
H           0.82073077742034    0.11463244389383   -1.21527111667972
H           2.27292385300040    0.98611197571399   -0.18324713895631
O           0.74680524136838    0.72416204488404    2.40402215861379
H           1.27399897045275    1.44242490050824    2.02612080903651
H          -0.09306909648972    0.76406484212158    1.90314562023293
H           1.22181019136560   -0.73504924826577    1.85969668434721
N          -2.24157572760778   -1.58507340837976   -1.72549617012624
H          -1.76654777631566   -1.86265299411157   -0.79589516306805
H          -1.60495008183214   -1.76897188569941   -2.49575422010726
H          -3.12943472262534   -2.06035423154758   -1.85358103330043
