    26
        -50.45538183  Gyration_radius:  2.56572678502 Dipole_moment: 4.090
 S           0.93099774357424   -0.28059763328637    0.39481280598609
O           1.58695659275157    0.57560358635927   -0.59065460763372
O           0.92490650870132   -1.67882425666590    0.04096532371753
O           1.68834325196881   -0.07989338028201    1.72573107296834
O          -0.44978318928455    0.21401235491105    0.62061113039107
O          -1.48236350584280    0.70060245016297   -2.98260588397761
H          -1.23301678074347    1.17941162551176   -3.77565793544763
O           0.98552968292768    3.05607214273226   -1.00829912054400
H           1.36277101443155    2.14548006117751   -0.88981881293128
H           1.32878780939500    3.58392739001251   -0.28503186798618
O          -1.32315307414326    2.00714938447483   -0.81518286450205
H          -1.47575329447941    1.51626745948439   -1.71325232276162
H          -0.99880035787863    1.22648671768739   -0.14561883218834
H          -0.47817897635377    2.57340685430785   -0.92991319959104
O           0.53689546147197   -0.89320304878558   -2.52786816493822
H           1.12402394449338   -0.27719164107230   -2.05387935291878
H           0.44626779983486   -1.61712155487745   -1.89371933075838
H          -0.78198867982798    0.00324699170735   -2.84931072242150
O           1.11978028766388   -2.38905755367976    2.62648330927477
H           0.16666743368816   -2.22690210368319    2.83590785458964
H           1.12457369074121   -2.64300014344676    1.69112156853940
H           1.56104605896077   -0.94909781736273    2.22772704293234
N          -1.44453777479120   -1.57822968065164    2.65777592859786
H          -1.21079348083963   -0.91284409502491    1.92142041138531
H          -1.85174726801506   -1.05774618380702    3.42448178867530
H          -2.15743090844670   -2.19795795589607    2.29377477150659
