    26
        -50.44962110  Gyration_radius:  2.52304533916 Dipole_moment: 3.590
 S           0.50992687909670   -0.35671333053220   -1.20717914286222
O           1.07963422939286   -0.54810403692324    0.11672508921690
O           0.83281410370531    0.93999702244088   -1.77017542338964
O          -0.94040061879773   -0.58630994181739   -1.17476585909558
O           1.12872330484890   -1.47162000465572   -2.11269887636115
H           0.72240228721791   -1.28667073259517   -2.99204408135789
H          -1.55368267786218   -0.06353980859211    0.09110529347375
O          -1.97576922062386    0.31178298116675    0.93776279860296
H          -2.86624783964101   -0.04399725791445    0.95836955945667
O           1.23491035058730    1.49052777965245    2.58235386919022
H           1.12540042178168    2.26457399703140    3.13885359015065
O           0.71244824326991   -2.33649366484317    1.85785552174290
H           1.58514207381193   -2.51731358639544    2.21371782263348
H           0.86834257571888   -1.76437154560898    1.04581607196026
O           0.10361984198450    2.29005266571673    0.38055734783085
H           0.95995999069893    1.77183853246700    1.66121226798071
H           0.47007730660939    1.89320472518206   -0.43949173545245
H          -0.78260818244633    1.92245740614247    0.47032527344516
O          -0.45068067580050   -0.35123583651641    2.86629119975675
H          -1.10667468017810   -0.10506030256327    2.11174789063614
H           0.01377916923693   -1.23191566333299    2.54021941981493
H           0.28801163534355    0.39121787822166    2.80999402755226
N          -0.31740325585255   -0.36212587520686   -4.00350667858440
H          -0.56662159472633   -0.22235145305368   -4.97503747723831
H           0.08824887723747    0.49554494798926   -3.63946506195114
H          -1.16335254436609   -0.52337489551648   -3.46854271695771
