    26
        -50.44962115  Gyration_radius:  2.52296389877 Dipole_moment: 3.588
 S          -0.94397888252729   -0.69487390619305   -0.68519725334412
O          -1.85762489417657   -1.05555693881094    0.38152816772791
O           0.43080177483861   -1.06666043403697   -0.39233156931036
O          -1.02622127042060    0.73570123842626   -1.00735630197574
O          -1.34038207448681   -1.47801623583140   -1.97952388059174
H          -2.27618723899572   -1.20153956048874   -2.12192959443501
H          -0.09551160887353    1.54730275680834   -0.15467483117903
O           0.51693167140095    2.10259858997138    0.43897168412183
H           0.53886152358074    2.97409785902927    0.03902345196051
O           2.08012432558318   -0.78760612197871    2.33817898834743
H           2.32990225565111   -0.57152678503984    3.23914717390266
O           2.60237468152820   -0.50406716753418   -1.54667709321687
H           3.10782068039966   -1.31971049695555   -1.53290695371999
H           1.67424417055182   -0.76005763556118   -1.25673097768536
O           2.73668101517182    0.86030672705616    0.55854492676872
H           2.78386087922717    0.32401398696543   -0.34014219464399
H           1.86483854623177    1.40443828376717    0.49454269349553
H           2.53401358273113    0.14610502919993    1.29947141012976
O          -0.38908617072739    0.02952300527776    2.29088951554869
H          -0.97667286365877   -0.46766477754705    1.68107129499604
H           1.09040353531738   -0.64352065914011    2.28402376306470
H          -0.29825639100019    0.90662083517181    1.90225467886209
N          -3.66310991279940   -0.29445407501025   -1.66005161326330
H          -4.64977506284275   -0.18851553615252   -1.86200843160000
H          -3.21973616450526    0.61606900767646   -1.70689622655884
H          -3.55431611732887   -0.61300701898153   -0.70122082755236
