    26
        -50.44962114  Gyration_radius:  2.52295588893 Dipole_moment: 3.587
 S          -0.68626730302884   -1.12978432743055   -0.30992717062169
O          -2.02231125217406   -0.60213676677510   -0.50808333412938
O          -0.11178417078099   -0.73054289370551    0.96469426415215
O           0.21133730868085   -0.75735813016170   -1.41118020780971
O          -0.75586160968715   -2.69185896518575   -0.28586358826777
H          -1.16207073823680   -2.90400356159245   -1.15914988370007
H           0.87155409068492    0.56665494997439   -1.16057304425470
O           1.30193221973989    1.47560141669409   -1.00432619868779
H           1.99624307752664    1.54602927532289   -1.66232297763993
O          -0.18095595246539    2.11588945928743    2.43008014322382
H          -0.33257601947928    3.04399831277867    2.62103486060070
O           2.22475793064088   -0.94402463151699    1.89173468229225
H           1.31676118056981   -1.03356791150246    1.46909920330870
H           2.10388100526153   -1.19283121810765    2.81064782131084
O           2.04584273378102    1.51908156464031    1.43078093952637
H           2.21839174160901    0.51357731012857    1.66884110140717
H           1.79331825595522    1.51351040283493    0.43254767755857
H           1.15052546275958    1.77101698799491    1.91572409883141
O          -1.36453802204629    1.87677607046478    0.12608851890965
H          -0.74018844363029    1.90453617889896    1.62637193330183
H          -0.62603554108398    1.97538282857371   -0.48504604329092
H          -1.73815876866331    0.98705377642007   -0.05575426615251
N          -1.81562275350642   -2.41290749855062   -2.67245747175054
H          -2.32070562771543   -2.76788517994059   -3.47520385560338
H          -0.98855258586780   -1.92396030111746   -2.99596239736445
H          -2.38891620883377   -1.71824711843004   -2.20179479515856
