    26
        -50.44962137  Gyration_radius:  2.52266528621 Dipole_moment: 3.571
 S           0.88136185319911   -0.37375268715488    0.95898113217022
O           0.39715114554437   -1.70044522108305    1.28781479902812
O          -0.16624046216647    0.63286403022414    1.01701989612691
O           1.53946739429352   -0.34801853923288   -0.35373040417777
O           1.95287646763018    0.05227102521986    2.01557497851540
H           2.62495132515538   -0.66602669717487    1.94405865162379
H           0.55529601670858   -0.08142030994410   -1.45511128587788
O          -3.18803438555585    0.49607439257603   -0.01976913595853
H          -4.00161900346159    0.19863641591370   -0.43265306648182
O          -0.11368240843290    0.07448978396241   -2.20600671186438
H           0.41466928720955    0.26459577670585   -2.98361292848949
O          -0.21368886334488    3.04822127086533    0.28985666075591
H          -0.03018748140297    2.12847554531384    0.65228221811089
H          -0.68663967195510    3.50742058716821    0.98726081457988
O          -1.66323576639626   -1.58375960624550   -0.36208858076447
H          -2.59255135096250   -0.30791452282036    0.02719969890997
H          -1.17832245868304   -1.34277603719607   -1.15916413303747
H          -0.98034125938659   -1.71184940693600    0.33177139120982
O          -1.67315515393684    1.92879907705874   -1.42186461518836
H          -2.34726134095998    1.39267741017876   -0.82293133699456
H          -1.09390925122026    2.49151604944642   -0.75486229881933
H          -1.03297938720708    1.20654820562814   -1.78076350232176
N           3.19403744944522   -2.12832114286075    1.24004531884107
H           3.23064649159442   -1.78738915950052    0.28597539507321
H           2.27392042793551   -2.54368147110931    1.35708152950187
H           3.89747037641770   -2.84723477907026    1.35763552563281
