    26
        -50.44688744  Gyration_radius:  2.60243206164 Dipole_moment: 6.369
 S          -1.25477836520427    0.29639688476955   -0.98540360917663
O          -1.30288593545251    1.16316868200976    0.15290598359767
O          -1.28189650808968   -1.16933901895639   -0.54997335357095
O          -0.10690228476098    0.49617039954485   -1.84882174856784
O          -2.53938037966674    0.43792670089499   -1.80738767351037
H          -2.37233897740152   -0.17980144090887   -2.60676387267246
H           1.28029941008072    0.35473185025459   -0.94491827855826
O           1.99361536019940    0.22005481385053   -0.28324779328796
H           2.82512671254370    0.17482750653785   -0.75743674395999
O          -0.51010165617997    0.30851998763373    2.84619427527603
H          -1.36244552639797    0.47227617969393    2.43384056078272
O           2.48911221538792   -0.00821572576700    2.96424282880677
H           1.74313807101096   -0.27831415960703    3.50544713709613
H           2.36318060565263    0.92681969289002    2.78106224572672
O           0.94203388796525    2.09828420521558    1.44472701068581
H           1.51512235110944    1.52703695708418    0.90576804954908
H           0.12164948647862    2.15994681584617    0.93426566373992
H           0.06055611839561    1.03751696742487    2.51317701187764
O           0.44782616328275   -1.50810534676855    1.18735343898548
H           0.10887445529635   -0.94403734208363    1.93229167828779
H          -0.53878018321386   -1.37665495061768    0.20540189667450
H           1.23837939448886   -1.04293436363322    0.85587657017577
N          -1.64439847140770   -1.14941542990916   -3.60467393674425
H          -0.72405255705657   -0.76428863408444   -3.41659600811356
H          -1.81554042852148   -1.15429649252847   -4.60143397196972
H          -1.67541297874604   -2.09827473882324   -3.25589738112591
