    26
        -50.45028668  Gyration_radius:  2.64230898233 Dipole_moment: 5.328
 S           0.63342491449310   -1.29761093082688   -0.63666197504140
O          -0.85755786080245   -1.64159575324133   -0.55990497363433
O           1.19046070546424   -1.08234700784729    0.65990029219004
O           0.79773181755056   -0.18691287323587   -1.55554717733740
O           1.23549818032259   -2.56247799761012   -1.26094823312653
H           0.80341884642239   -2.59349511109472   -2.18492343605167
H           0.31498570837992    1.27556583729840   -0.95278315323923
O          -0.13897170513938    2.07352401741082   -0.59826007307517
H           0.00074558970192    2.77480289677080   -1.23680379071594
O          -1.63210658933273    0.65615512713333    2.79364050818985
H          -2.27445465046094    1.15331905460610    3.30211777445492
O           2.44538450854763    0.62876438582524    2.32976177409084
H           2.47285082216878    0.13905723427278    3.15393597294324
H           2.07451869563859    0.01261747413765    1.67298123311767
O           0.32607569259529    2.30027679133184    2.17124864673205
H          -0.85976102692316    1.26697989967599    2.65304203805516
H           1.16295675836969    1.80777524560762    2.29823110245644
H           0.21210307548133    2.35790835100246    1.21135879896571
O          -2.11432221497516    0.35814727008350    0.23103887877624
H          -1.43583716221411   -0.82551135685902   -0.20845162915443
H          -2.01376503292804    0.36935382827962    1.22178595774297
H          -1.56405817630887    1.09641933085753   -0.08704885345248
N          -0.04713983860482   -2.15774049869492   -3.44573050826989
H           0.09377691980591   -1.16615745262877   -3.28003079948208
H          -1.02275106350894   -2.37479509668732   -3.29071831482198
H           0.19679307623921   -2.38202267555224   -4.40123006029932
