    26
        -50.45352408  Gyration_radius:  2.57457874102 Dipole_moment: 4.254
 S           0.05144662160388    1.39184480838170   -0.21778192281339
O           0.85136041861791    1.95552054029319    0.93333373233890
O          -1.03814528805660    0.57722833885191    0.26198572669986
O           0.91145707626400    0.66117777804802   -1.13341558500681
O          -0.47966377256445    2.63972045338302   -0.91771214345932
H          -0.57547617564159    2.38407591573906   -1.91010275848395
H           1.53586460446523   -0.72252589704653   -0.52749260170322
O           0.28540992758593   -1.09057700593788    3.60022795247599
H           0.50796368862837   -1.84209061432462    4.15139869995981
O           1.90088361058745   -1.49009184386896   -0.02659479122346
H           2.65568552468091   -1.80689195408616   -0.52602706632603
O          -0.61907100558414    1.61982653549509   -3.21233006070494
H           0.18207993490478    1.11044035940202   -3.03966642915280
H          -1.37767651920565    1.00245412881631   -3.00651048908841
O          -0.59922257807284   -1.91187451827471    1.22753288891319
H           0.23385237081781   -2.06442738664833    0.76209489716896
H          -0.18231204352616   -1.44853245557487    2.80791038635294
H          -0.91658267572564   -1.04928471051545    0.90574795551595
O           2.07815848872681    0.15783570348159    2.12339507591416
H           2.15374749563621   -0.52964848683957    1.43093384544842
H           1.40190388144334    1.21765142524479    1.48500794843565
H           1.44809475099444   -0.20814978625056    2.79673875990469
N          -2.45040965199010   -0.00203584128656   -2.17861163738380
H          -2.45516851785189   -0.99646423486365   -2.36930479772160
H          -3.41174905497606    0.31520658362130   -2.18795186592485
H          -2.09243113174045    0.12961218452447   -1.23280571068917
