    26
        -50.45546732  Gyration_radius:  2.4980699071 Dipole_moment: 5.315
 S          -0.77201783762696   -1.86621644932496    0.82493157132730
O          -1.19142614169671   -0.46205100116999    0.98504670998551
O           0.25967985732408   -2.25818156027931    1.74838553088182
O          -0.52331270312125   -2.15267052982123   -0.56776101653589
O          -2.05869779112832   -2.71554409226410    1.24573130485461
H          -1.74165243500496   -3.13282284958657    2.03976144459710
H          -0.44778818503131   -1.33603357311034   -2.03995095996031
O           1.59858679694478    0.70779307759520   -1.41908677888348
H           2.45619240796984    0.87755666828284   -1.81073785682391
O           1.87293585653332    1.82117236000799    2.23162776299930
H           2.52532965914157    2.51777444321336    2.14875198279165
O          -0.44001281727347   -0.56050653248036   -2.64551683792753
H          -1.48358468191119    0.20541149674199   -1.90474119175689
H           0.38083164286268   -0.08945056846956   -2.39443228578477
O          -0.12354745101275    1.97642782824508    0.34184633807585
H          -0.43682447480877    1.15763099987933    0.76668802824554
H           1.10822726724057    2.08125123622839    1.68389933275052
H           0.50787186490544    1.68128846304178   -0.33650585357065
O           2.06358069463309   -0.55013257578308    0.79537613402619
H           1.77662390366409    0.12791515237901   -0.62098417216915
H           2.07411502562532    0.16140231318412    1.46164576217667
H           1.47179911703826   -1.24071762708368    1.14755706226499
N          -2.11221348132196    0.67153258894535   -1.13426249606766
H          -1.88254023237365    0.10855229556152   -0.24502421536492
H          -3.10001187731928    0.64695712990697   -1.35916055761761
H          -1.78214399389737    1.62166131594477   -0.94308472251566
