    26
        -50.45546774  Gyration_radius:  2.49813171102 Dipole_moment: 5.334
 S           1.07997064155566    1.53162608255570    1.11737701055444
O           1.16051826776503    0.05952175275534    1.12298423164868
O           0.07181278040823    2.04623135898917    2.00590129616382
O           1.04378598257813    2.02032150983032   -0.24021260728284
O           2.47259622385312    2.00840654412809    1.73943084171055
H           2.17811380290262    2.38416758882730    2.56229433722055
H           0.94049863925476    1.41175079879401   -1.80810773213143
O          -1.56166384124063   -0.15389420344379   -1.61401206964072
H          -2.39127780388573   -0.07749575323063   -2.08689604941717
O          -2.45132302429129   -1.56693387458836    1.82675157615593
H          -3.22918952682898   -2.08106747990825    1.60699219566526
O           0.82245630933754    0.73151524988304   -2.50924365403386
H           1.58771943082319   -0.33438118308026   -1.80031048899144
H          -0.10395895968972    0.44041265317570   -2.38418067083756
O          -0.35476346035023   -1.97439571113215    0.08926371634763
H          -1.71097903163924   -1.93571572989688    1.30873421016702
H          -0.83134774973260   -1.46638578317324   -0.58965796851797
H           0.08854348515689   -1.30390941281023    0.63970341388892
O          -1.96091611071306    0.92739939481398    0.70396662063040
H          -1.26889417449996    1.41620565722923    1.18708007977952
H          -1.68766559271116    0.36081317172027   -0.76301162677158
H          -2.19885128240058    0.16893025531253    1.26821057386374
N           2.01447526429003   -1.01694820917502   -1.05330577636388
H           1.46261874614347   -1.87839578922790   -1.01274023594317
H           1.82737994625970   -0.51748561302895   -0.11737014880050
H           3.00034104760726   -1.20029326532625   -1.19964105521241
