    26
        -50.44680256  Gyration_radius:  2.5337856397 Dipole_moment: 3.776
 S           0.05043508878724   -1.42418444248645   -0.78596511306472
O          -1.34766127522140   -1.08858039992190   -0.42836255594347
O           0.87992859059285   -1.48302882753264    0.39681059773292
O           0.54186775372770   -0.46215741176982   -1.76977495582190
O           0.02433680382790   -2.82923738812022   -1.43207795028741
H          -0.56430301036147   -2.68638657239696   -2.22498780371845
H           0.52491556712891    0.95767155882875   -1.06987750741021
O           0.46108174001683    1.79290451042002   -0.52918323067538
H           0.38145269157180    2.52436791421865   -1.14271836730334
O           0.25915772234077   -0.28390962949774    2.74233474417869
H           0.33188992351478   -1.09710844479599    2.21601727595163
O           0.36648788227891    2.71376458892175    2.41366413509449
H           0.09077547028652    2.42680708417848    3.28630115104459
H           1.29120311748069    2.46850656352915    2.31796995938917
O           2.27221943111237    0.72465821649494    1.28256446647060
H           1.84197171727254    1.30943887067847    0.63981446153984
H           1.07890935004626    0.19862939034077    2.49015694428930
H           2.16001976163876   -0.16093509316670    0.90108631254172
O          -1.32647252202071    0.82102112962442    1.11773462019738
H          -0.75669486442387    0.43579103060452    1.90788727482112
H          -0.70927530538581    1.44915730771069    0.64141610378140
H          -1.42984918312615   -0.02328806924619    0.44148080303786
N          -1.49334257526088   -1.79286416309787   -3.26755004702225
H          -1.79993038898849   -1.92716730066772   -4.22252795140985
H          -0.83856653112170   -1.01796645745097   -3.22780611909263
H          -2.29055693571998   -1.54590393539424   -2.69440724831800
