    26
        -50.47117020  Gyration_radius:  2.45852508403 Dipole_moment: 2.473
 S           2.12540401096834    0.52917609929329   -0.56938818342762
O           1.70500473044043   -0.81870130229056   -0.22282897389143
O           2.62978403779106    1.30520718804533    0.52675884902824
O           1.05755096850082    1.21932462342711   -1.30828842797647
O           3.32726759426838    0.37961639033730   -1.60108963058606
H           4.02719417391821    0.84846590605908   -1.15765406805049
H           0.37131688897436    1.83669930177006    0.09693859348061
O          -1.67825197274057   -1.57816620772542    1.45795825538016
H          -2.02937933125923   -2.08647141315632    2.18935930562490
O          -0.04846345781172    2.06581632883577    0.95211505398261
H           0.58083848102282    2.65055245189987    1.38093100958324
O          -0.41389176837858   -2.33966952120706   -0.87370019211135
H          -0.90929030817437   -2.29553529545712   -0.03575256857194
H           0.47085902622990   -1.97931068284609   -0.66564499018975
O          -2.45346308893424    0.77663908769129    0.29403277836949
H          -2.34901937172397   -0.05585772882237    0.79308507097318
H          -1.78770365014489    1.38394867586384    0.65007032591970
H          -1.81882019068791    0.33646073823061   -1.11429502146411
O           0.52256169500605   -0.37445157857934    2.12343792424100
H           1.12511165326710   -0.62749774598060    1.39911783559037
H           0.33184371001728    0.56388498865495    1.95495961814435
H          -0.82822621060647   -1.16053352301309    1.78592244096945
N          -1.17441542679148   -0.04577834517671   -1.86727752495435
H          -0.26281617082727    0.47888102923538   -1.77948048577808
H          -1.56848457230110    0.04863261165103   -2.79567030827789
H          -0.95251143011812   -1.06133208673949   -1.61361669602648
