    26
        -50.46760060  Gyration_radius:  2.41476510299 Dipole_moment: 4.159
 S          -0.82999691294828   -0.65943065178397    1.47611158314586
O           0.51704667659861   -1.22768905173449    1.36854471119051
O          -1.16989054388624    0.10248134417266    0.29974373324062
O          -1.05077708419876    0.02115615327058    2.72832937951029
O          -1.81485849271230   -1.91173619501445    1.47637377043844
H          -1.86395618054197   -2.13434211272270    2.39984730095428
H          -0.69339604627957    1.60621730399472    2.33214113118867
O          -1.49686246027151   -1.37907882650429   -1.92604225945872
H          -1.59223708748103   -1.02407369311910   -1.02446646203846
O          -0.27885123673151    2.46548637004856    2.10329263652230
H          -0.12241729199428    2.91373105834073    2.93721160374266
O           1.72437590928742    1.12326170544501    0.95444102903741
H           1.06725735022107    1.75899175106232    1.31385452683727
H           1.40286378533011    0.24588135990025    1.23754814944831
O           1.14228304726326   -1.98097114651388   -1.03165487454687
H           1.80491489940030   -2.66509020692494   -0.92486236583781
H           0.86074633481930   -1.73372974137051   -0.10954059938289
H          -0.66620398605749   -1.86778032292719   -1.90463730487586
O          -1.08684317246163    1.27600466649757   -2.17639707998796
H           0.42118894492853    0.99872554717444   -1.89381048485629
H          -1.37948848641878    0.36498365481502   -2.39163702574570
H          -1.37466971919996    1.38765497394607   -1.25975882096543
N           1.40066162714582    0.67291865286208   -1.60032296032492
H           1.56587824862294    0.98024689594235   -0.58485679793802
H           2.11731213787187    1.03225433085542   -2.22043668072477
H           1.39591972970498   -0.36607382967441   -1.57901584855193
