    26
        -50.44962118  Gyration_radius:  2.52233010122 Dipole_moment: 3.548
 S           0.77771183188559   -0.77757670195706   -0.78439780988838
O           0.88011794996595   -0.50181044109894    0.63960538132580
O           1.45500497034484    0.21670691091905   -1.59389529011428
O          -0.63066766825992   -0.92468163348665   -1.17377407381806
O           1.46107437242726   -2.16649021571889   -1.00821197375628
H           1.37670355676753   -2.29486003896997   -1.98252097691280
H          -1.50478394038316    0.03486579429423   -0.41935047607447
O          -2.09600627585390    0.70138715828775    0.07220648670689
H          -2.99607454468501    0.41137394130573   -0.08827352971030
O           0.62165890445069    2.26413385301886    2.21179362249903
H           0.46791368025161    3.18857064772565    2.41827032401565
O          -0.24100960715513   -1.55075295491629    2.64188016304576
H           0.45066934608144   -1.62757166852744    3.30257866286289
H           0.23066311147128   -1.30987949142728    1.78770121239000
O          -1.33111790725973    0.71005929920848    2.50146352242295
H          -1.68680539749253    0.69541492877404    1.53521953346212
H          -0.93283145080630   -0.24558220700218    2.65457625492824
H          -0.50383139111271    1.35396021870906    2.45513809441667
O           0.33072728615346    2.27345081270885   -0.37347831544096
H          -0.58692937511113    1.99509372729295   -0.46822042246532
H           0.67865838698039    2.20994516588302    1.21323330253089
H           0.86041472241607    1.59646775321381   -0.84813069493553
N           0.85340910411456   -1.75768994348053   -3.53006451076756
H           0.94232234154533   -1.96651688905072   -4.51696903143962
H           1.25387678070449   -0.84146668775813   -3.34858509051409
H          -0.13086877744395   -1.68655133795190   -3.29779437477238
