    26
        -50.46596317  Gyration_radius:  2.52193148983 Dipole_moment: 2.171
 S          -0.42700962890952   -0.24371749371826   -2.10448475596198
O          -1.01222817678229    0.76270731207272   -1.23773613598759
O          -0.52628349610268   -1.58055645998970   -1.52291931699862
O           0.90497415198834    0.06620828721869   -2.56917911547205
O          -1.35125748506084   -0.26749787763914   -3.39745205400906
H          -0.79682418865740   -0.67935108660228   -4.05255481207642
H           1.99619930554876    0.42456599232540   -1.41077184793802
O          -0.17249154774895    1.54113762241712    2.76277874264006
H           0.45522422376096    1.92784916719327    3.37374058778424
O           2.58204957912222    0.59524168723311   -0.63436646861672
H           3.47109085135629    0.68297276519842   -0.98154155061555
O          -0.54429031189057   -1.06566528622502    2.44106717066145
H          -1.52924617028938   -0.99302849301816    1.37174488201727
H          -0.40118371397956   -0.12172623147596    2.68583905685559
O           1.26755730660277   -1.53872641558701    0.54642720296845
H           0.71611881859970   -1.69799392716990   -0.23710160530480
H           1.86387406829770   -0.81352709894347    0.30339021746926
H           0.23903633219035   -1.32287508860831    1.90121572464383
O           0.60733145755554    2.27363665775932    0.33747582205777
H           1.44234425755068    1.82888690810195    0.12426004557593
H          -0.04000418111849    1.89232477043780   -0.27942359672002
H           0.08184713282923    1.86870607044708    1.86431211547513
N          -2.11650055616710   -0.91329276662768    0.43070005268113
H          -1.95531326492451    0.02196997048622    0.00728771541025
H          -3.10021601640241   -1.12254631744233    0.55563917854034
H          -1.65479872737671   -1.52570265783220   -0.27834724507497
