    26
        -50.46596327  Gyration_radius:  2.52214503391 Dipole_moment: 2.176
 S          -1.97685670812040   -0.56549924599913    0.66611754581437
O          -1.76401953850132   -1.27721023877936   -0.59231489960384
O          -1.46479968651446    0.79128865042520    0.60774862636175
O          -1.54114702636704   -1.32198735829826    1.81675953277966
O          -3.55214906414540   -0.40975611430683    0.81084369248361
H          -3.82309788750746   -1.25555546922913    1.15345623844024
H           0.07124841805294   -1.38526564023471    2.05618833053991
O           2.36090550753559    2.07214416746960   -0.42717544718449
H           3.27135889901275    2.13711129590970   -0.13764665016192
O           1.05807038212321   -1.38655733181077    2.09256800619521
H           1.30090737525375   -1.98744041324932    2.79870670843239
O           1.49479512222389    0.34372224882797   -2.24379851843894
H           1.91541162937566    1.00517334744947   -1.64614414329352
H           0.07908956155934    0.67656946354626   -2.17787276235003
O           0.93784189820617   -1.72123215895407   -0.65559120450657
H           1.47092370567607   -0.49915584877775   -1.73374062865114
H           1.19206352951986   -1.65173030363684    0.27769934871078
H          -0.03329456800520   -1.73579346238038   -0.66196432568860
O           0.95822564228263    1.35223197192895    1.70401022756691
H           0.03333897520800    1.29138546988216    1.41099856949978
H           1.19886494024298    0.44558922161115    1.95013514966111
H           1.82966212886232    1.86821398288389    0.38235047698884
N          -1.00392946526293    0.80571517696060   -1.96115007687910
H          -1.11365671978003    1.24185863392146   -1.02435238673069
H          -1.40085142761181   -0.14286969153392   -1.77756760531105
H          -1.49890563331112    1.30904963637450   -2.68826383468904
