    26
        -50.47417206  Gyration_radius:  2.42098108388 Dipole_moment: 1.946
 S          -1.29950618402890   -1.31720698542381    0.76633121663757
O          -0.13841599171079   -2.03545118042234    0.27612451647003
O          -1.90029803603716   -0.47914789534447   -0.25796800635573
O          -1.01899717040104   -0.60244957739289    2.00216883075970
O          -2.40094142830793   -2.38998281733119    1.14419286993994
H          -2.19822311935126   -2.55737362295706    2.05788943497977
H           0.63163578849090   -0.61748520198346    2.16087248208195
O          -0.77568485314860    0.52807098122987   -2.39710534579455
H          -1.44602309270403    0.62201799517201   -3.07530072213635
O           1.58470665936383   -0.79599016041468    1.99888941976771
H           1.56405858983321   -1.64180177351304    1.53570176925332
O           0.33249816382895    2.42364466040549   -0.69855061799713
H          -0.37551589201281    2.39333237937037   -0.01428258979619
H          -0.04402194286782    1.94964843841050   -1.45939428518434
O          -1.64558311869706    1.86396170046129    1.00044428559555
H          -1.22940283422252    0.12211372070405   -1.61989363212490
H          -1.94028017028955    1.09291037643019    0.48234902825562
H          -1.36995273703130    1.47362366900774    1.83649921631844
O           1.31205778114655   -1.14603367457957   -1.77069476363475
H           0.79347750124321   -1.62503184227300   -1.08912541604680
H           0.65352385951952   -0.63063401750098   -2.26491611112077
H           2.00104360406369   -0.05014570201263   -0.85677456281386
N           2.20902507350333    0.68920448644171   -0.11579753068589
H           1.50666592720925    1.47998406928206   -0.27609770428191
H           3.16212195468775    1.02750825804145   -0.18098681178819
H           2.03203166792619    0.22271372617590    0.81542503970622
