    26
        -50.47416337  Gyration_radius:  2.42035490088 Dipole_moment: 2.171
 S           0.45756632588242    1.88718774715772    0.47742731091544
O           0.72202197075178    1.04796452433376    1.63206614688146
O          -0.90472758263843    1.75126816787042   -0.00778392530769
O           1.45929717311095    1.71032795385197   -0.56180151845510
O           0.58741981705624    3.39216514031440    0.95022658151935
H           1.53069443877554    3.50789538060341    0.98002655954744
H           2.30355566158098    0.34824543105554   -0.14894920054984
O          -2.55018287383253   -0.26627550155193    0.26983788517336
H          -3.44752843426132    0.06973312170394    0.26761095285558
O           2.61517954694275   -0.44742211123641    0.33806714599190
H           2.42395443278699   -0.22084367655652    1.25585844251746
O          -1.09402877516961   -1.48425769019974   -1.75645037137421
H          -1.79203401706333   -1.19529889551671   -1.14442261324807
H          -0.79491740710554   -0.65591699247537   -2.19825721792570
O          -0.32170334184923    0.95920911982778   -2.49407901165962
H          -0.69390677428525    1.37415654254445   -1.69498370359307
H           0.62220125872625    1.13102961910757   -2.41003495657045
H          -1.96318326115706    0.52319617104243    0.18932621898715
O          -0.67503457323703   -1.17579452107798    2.06387256210215
H           0.11876585799618   -1.95390483982999    0.93378252423280
H          -0.17868005746690   -0.32904429883114    2.06425526509738
H          -1.51902952701597   -0.96907921463269    1.63000829533227
N           0.65592353998164   -2.21914262354804    0.05080235995976
H           0.91071196147786   -3.20004176706563    0.04742157727750
H           1.51302207273617   -1.60127514447219    0.03872588808751
H           0.01464256728358   -1.98408163240821   -0.77255322778914
