    26
        -50.45129008  Gyration_radius:  2.61587924709 Dipole_moment: 4.151
 S           0.70424084211409   -0.36055292235663   -1.21777042129133
O          -0.07229523387241   -1.51350287232649   -0.85874184598121
O           1.51767745681530    0.21886349921216   -0.19070338584316
O          -0.27042976383403    0.71288141958139   -1.75535280807878
O           1.58603270422461   -0.69863708661405   -2.43005647904183
H           0.97786491191670   -1.25110957478796   -3.05095484162779
H          -0.02718516246149    1.61769677016702   -1.33874208389674
O          -1.00002644985567    1.97962574499831    1.61151445543365
H          -1.81273807591456    2.42635028605116    1.85203985845324
O          -0.13958969078666   -1.34820880262580    3.34506725282267
H          -0.38442422807796   -1.18726112980726    4.25733446041016
O           0.47526248295937    2.75154757355212   -0.46375005227111
H           1.32185670944014    2.35466105712953   -0.22547534764379
H          -0.10322508802368    2.61279638904774    0.32332675801363
O          -1.57753092946426   -0.52715322618113    1.20029046389898
H          -1.17680521471568   -0.95125080640519    1.98867687675444
H          -1.25444756781272    1.03145293464761    1.41061902864555
H          -1.13083716054059   -0.93821976065689    0.44405446436265
O           1.36205554624415    0.72006770484659    2.52205328368645
H           0.54013135865827   -0.67331001954473    3.11839832538667
H           1.60464046423969    0.44717747066301    1.62453290483892
H           0.62956596779591    1.34166332528159    2.40654553944235
N          -0.22068264006097   -2.06271814072996   -3.62150394369352
H          -0.88526625055917   -1.51714546259392   -4.15374387483583
H          -0.60825187339188   -2.24624491546635   -2.69989667487746
H          -0.05559311503895   -2.93946944508442   -4.09776193306890
