    26
        -50.47250304  Gyration_radius:  2.48721259462 Dipole_moment: 2.884
 S          -1.83655183324556   -0.76358826551302   -1.08998967951418
O          -0.89078302145411   -1.43673075784029   -0.22051385276212
O          -1.18469175527409   -0.18043660867089   -2.25634733112795
O          -2.67564451534986    0.19640010420609   -0.39866653160313
O          -2.81055285077367   -1.88751817012512   -1.63581246586417
H          -3.47693565289392   -1.35949672333763   -2.06188504616948
H          -1.82932630432479    1.28881342088964    0.39518619992202
O           1.97793532478896   -0.19875410261288    1.90726781064523
H           2.44673388123202   -0.31860939299750    2.73330986699417
O          -1.28786316968937    1.92252755975202    0.93496583361167
H          -1.82691836229071    2.70809611516851    1.03826305922409
O           1.77626623424702   -1.84879643546626   -0.29072355994786
H           2.01050155152172   -1.39237786173415    0.53815579155205
H           0.81074713761645   -1.97552633760258   -0.24033057398323
O          -0.59435016523095   -0.43737537385165    2.23939302943386
H          -0.80993057550944   -0.92649844602405    1.41998064982041
H           1.00591126648556   -0.32414934396555    2.11238699693740
H          -0.92887093973603    0.45757271831177    2.08097699341615
O           1.35993964507270    1.91734869136486    0.25618322402676
H           1.38808193140189    1.03304619975370   -1.07209401190455
H           0.41930755640574    2.02488519548041    0.49295347222587
H           1.71885623312960    1.28995125927834    0.90940362911395
N           1.34364738720691    0.25940694741656   -1.79884900789122
H           0.32656582767978    0.10759362237023   -2.06091412374133
H           1.66628805875379   -0.63297158067421   -1.31611667769754
H           1.90163710022712    0.47718756642546   -2.61618368471239
