    26
        -50.47416795  Gyration_radius:  2.42070704298 Dipole_moment: 2.067
 S           1.07545475366375   -0.93078414031990    1.40756859070649
O           1.84716354208388   -0.66456774969486    0.20568575161854
O          -0.11289366663112   -1.71876345574934    1.13769837401106
O           0.77099145863294    0.26777686441675    2.17345536991773
O           2.02017913100983   -1.79913315633886    2.33466110183764
H           1.65972437915974   -1.62476266359719    3.19704031824437
H          -0.87610043034954    0.42758952508404    2.12009356818844
O           1.02928369781437   -0.61469611382295   -2.28117802560406
H           1.76171100623612   -0.86392569080484   -2.84650147733303
O          -1.82716322073207    0.25970231409644    1.93446701212103
H          -1.86449285262347   -0.70263255112997    1.88172182838292
O           0.00411403368810    1.89833255597472   -1.69599400087499
H           0.64572022339867    2.12151446665320   -0.98243310431407
H           0.38645804826842    1.11780973927629   -2.13174356830822
O           1.76084294962171    2.00463563551761    0.30746538672062
H           1.36786096944874   -0.67136300119777   -1.35563542161443
H           1.37496291265750    2.03794408265897    1.18914529456095
H           2.00762403608731    1.06708924768193    0.20882250438564
O          -1.27467427839792   -1.71132505804585   -1.25666622455024
H          -1.91146223658320   -0.28421398654555   -0.99270090111719
H          -0.52450403175332   -1.50813645354518   -1.83913982232563
H          -0.87126231161585   -1.87749208457099   -0.37754036334560
N          -2.09759229291140    0.71569949357708   -0.66980706002192
H          -1.29965858229923    1.31074154678789   -1.06169023493272
H          -2.05482055102762    0.69070384785823    0.38561964878510
H          -2.99746668646764    1.05225679604852   -0.99241452528007
