    26
        -50.45538164  Gyration_radius:  2.56589090792 Dipole_moment: 4.090
 S           0.23192846067193   -0.01582581056649    1.02343294211606
O           0.60009730684987   -0.37433472589164   -0.36871633249671
O          -0.85487913677310   -0.83819457923319    1.49579929331132
O           1.48990500531086   -0.26420841475188    1.88424316297411
O          -0.04057422984708    1.41803938457798    1.08841568669336
O          -2.14941826376094    1.47936197589265   -2.18383342332653
H          -2.50787164042706    2.36166257020132   -2.29986109589071
O           0.98162978329283    3.18145126861746   -0.50392095076593
H           0.58898564953837    2.62068699067947    0.21493579782408
H           1.89895803086370    3.32221705951074   -0.26248475745611
O          -2.53903308037721    0.95127546997584    0.34464174486043
H          -2.38686577497352    1.20500084440155   -1.25476922829451
H          -2.43784147582618    0.04623847814128    0.66891698475914
H          -1.75799732134772    1.39338754169486    0.72322705301696
O           0.38094411010727    1.32299441497011   -2.13276252570455
H           0.50891582648154    0.53622682224515   -1.40643593267551
H          -0.64514038592691    1.38637208692055   -2.25163728043832
H           0.66860226685638    2.15858703198768   -1.61615967595601
O           0.87122899143911   -2.66539514957148    2.44946788855146
H          -0.03888700848645   -2.34106895522871    2.37213882626362
H           1.06635767806872   -3.07175034210894    1.56887373719351
H           1.39672718202651   -1.21876016389588    2.20622438371191
N           1.17255294527579   -3.20038030042527   -0.16914276153363
H           2.06636536385839   -3.41604132494524   -0.59245141911734
H           0.96710459408679   -2.22036673452453   -0.36138240619962
H           0.46820510302813   -3.75717541863836   -0.63675970143006
