    26
        -50.43916256  Gyration_radius:  2.49173897947 Dipole_moment: 2.416
 S           1.55754997544520   -0.75611737779664   -0.87997758184979
O           0.85019233240326    0.46101660424711   -1.12439158858883
O           0.88172281549209   -1.80040963545680   -0.17617480666330
O           2.87932168591892   -0.43231393845311   -0.17855079793198
O           2.03353097554820   -1.33261339674443   -2.25685326810136
H           2.06633929335129   -2.28471998972633   -2.19017118207501
H           2.79670679128434    0.50218046077454    0.24917298143283
O          -2.85373810700253   -0.25693471238369    0.19913183987959
H          -3.71624283453304   -0.37761033663212    0.59757355544158
O           0.16988618197158    1.38444590220851    2.15083001215591
H          -0.07486641169543    1.97127769289161    2.86842784755491
O           2.39468095232239    1.84722646763859    0.77024981099106
H           1.65291908197630    1.66858103945921    1.40008634993048
H           1.98276069279222    2.24340769120158   -0.00458051535448
O          -0.92717062412599   -1.18557188947205    1.79636814263524
H          -2.20484140275299   -0.70160143279913    0.79651668558426
H          -0.30810370636833   -1.58054825054230    1.16393259985967
H          -0.49279288414647   -0.37840837377803    2.11175029395396
O          -1.21241495065894    1.87182665294625    0.01588782784660
H          -0.41730786461659    1.62716922226703    1.36930308880072
H          -0.56589085660149    1.49334083944691   -0.59780505431949
H          -1.94792447481000    1.22515118503734    0.02295479322977
N          -1.21575033832670   -1.45370962763562   -2.25830737888834
H          -0.73462326250218   -2.02178706640035   -1.57186333918828
H          -2.00596504389500   -1.03740675471151   -1.77552985688476
H          -0.58797800646758   -0.69587099558723   -2.49798045947305
