    26
        -50.46760085  Gyration_radius:  2.41436830327 Dipole_moment: 4.171
 S          -1.80846128218030    0.11039334113989   -0.12275937196299
O          -0.64949419348116    0.80805046002246   -0.62258148606076
O          -1.44108287549685   -0.84191071013795    0.92951882060584
O          -2.65206654965072   -0.47433486964536   -1.13578463257759
O          -2.69469443969852    1.21718296916848    0.60391467022535
H          -3.57023683348151    0.84898965850610    0.55027605357125
H          -1.53764270063801   -0.92932952183738   -2.29720113211416
O          -0.83795461498446   -1.35486610986813   -2.83742266209821
H          -1.28588979690960   -1.99911853142182   -3.38975840717383
O           0.45720917074346    2.51736550148369    1.14070354356782
H          -0.17972646873018    2.07147149520736    0.55466667478381
O           0.32734714143554   -2.16971687596375   -0.57642258987489
H          -0.38988670123647   -1.84655606060970    0.00175753967252
H           0.03995802803381   -1.93663334356800   -1.48654304447688
O           1.91446387034517    1.70934993686353   -0.98123887671394
H           1.60534522957062    2.26300877782829   -0.23292792233088
H           2.13994727985929    0.36385385698874   -0.22625389132350
H           1.09229829307389    1.47150871763330   -1.43175226222291
O           0.47524355884752   -0.00797198094212    2.46265508386264
H          -0.29399836103182   -0.28470291959878    1.89477690984555
H           0.35725017533918   -0.46354490094158    3.29757001201604
H           0.55545442370375    1.91720317007646    1.88871988829724
N           2.13528783105337   -0.53224401886721    0.36412953515694
H           1.48308006063094   -1.24191015098397   -0.10917171943248
H           1.68901773506724   -0.30873379527539    1.27557822034536
H           3.06923198980781   -0.90680411525122    0.48555103639678
