    26
        -50.46760085  Gyration_radius:  2.414521119 Dipole_moment: 4.173
 S           0.77176974338278    1.63848085025949    0.14280425304916
O          -0.15446820208505    0.95695406539366   -0.72742119778527
O           1.42394018241749    0.70079867284006    1.06188252239123
O           0.23790625651680    2.79783383421300    0.81405063176965
O           1.93518437635698    2.17428463781455   -0.80458568087340
H           2.27575529373649    2.91540384109662   -0.31491707860537
H          -1.35331334445688    2.35089625744070    1.07053212140486
O           1.01293940951376   -0.67795764439091   -2.52213811731337
H           0.76613466697760    0.11166932383035   -2.00885801842525
O          -2.20081827628390    1.96204549541515    1.37557652474686
H          -2.52992009404347    2.54915566610251    2.05952951060062
O          -0.86309314557455   -0.23887359175347    2.08346135357669
H          -1.49730032191561    0.47957294111199    1.86715790777686
H           0.01577956698100    0.13516212062104    1.88111334204012
O          -1.61348868247516   -0.99029351069148   -1.99066931290725
H          -1.19069741575848   -1.70170508812821   -0.66931902430980
H          -1.63456454191775   -0.08436637380440   -1.65257319813038
H          -0.75999313152488   -1.02780708451688   -2.47260945054574
O           1.91847382871899   -1.61691732664456    0.01214477602759
H           2.65940162838652   -1.97305163003581    0.50484225252459
H           1.56052961301913   -1.19414778714713   -1.91953218548613
H           1.76706552517325   -0.70347124635857    0.37756609186090
N          -0.75829291165085   -2.08455840868591    0.23514746914663
H           0.27195984514559   -2.11978016484510    0.10372011406304
H          -1.13685903308845   -2.99308720843082    0.47708680686261
H          -0.92403085554374   -1.36624068067157    1.01600758654612
