    26
        -50.46760065  Gyration_radius:  2.41475326261 Dipole_moment: 4.164
 S           1.43514202448728   -1.09421396163352    0.18975842980164
O           0.94190698346263    0.14302817568427    0.74266168041036
O           0.66077615845318   -1.49371070669353   -0.98919951247868
O           1.59723511370240   -2.16594178849491    1.14109149528065
O           2.89514390778633   -0.76760259674983   -0.35817382263796
H           3.32300071651789   -1.61651137509426   -0.32240742996029
H           0.33159424590983   -1.89065449190439    2.19943897598110
O           1.38227616899620    2.29751897166195   -0.81340579628095
H           1.51992670215497    1.49990134864087   -0.27240528101506
O          -0.53187757223889   -1.80807381695082    2.65787274158319
H          -0.66126769139286   -2.63460904526323    3.12789465152929
O          -1.69633149285789   -1.48095395630214    0.27630742106469
H          -0.88120921553157   -1.65217012203160   -0.23311607952916
H          -1.42641512164539   -1.56623168502341    1.21711931192719
O          -0.10360037867159    0.50261635951524   -2.45523228796971
H           0.24531670089029   -0.25098821693764   -1.90650300051570
H          -0.21469481892264    0.14924771965697   -3.33917118036703
H           1.00371395162062    1.96692826619864   -1.63608773951453
O          -0.47264166738910    2.45828603399921    1.13840455388206
H           0.19726637142792    2.73647729548191    0.47804318715979
H          -1.42237863402459    1.64260557432667    0.20902582449491
H          -0.04695819714442    1.71102679462435    1.58075891747406
N          -1.92789273579021    1.00715871208974   -0.49258492592835
H          -1.34785176636440    0.96185032048126   -1.35361264078628
H          -2.86616785988485    1.33621631518173   -0.68907564988203
H          -1.93401188356080    0.00879988552687   -0.09740183373667
