    26
        -50.46760079  Gyration_radius:  2.4145914744 Dipole_moment: 4.167
 S           0.69580679605393    1.44221939500050    0.85540498090405
O           0.05928973147326    1.86749735722844   -0.39483388109076
O           0.74390078912716    0.00419664851262    0.95303275629911
O           0.15830476886964    2.11445741059232    2.01263914669910
O           2.21242884801956    1.91541813587004    0.73604530120426
H           2.17903304064176    2.80172509068337    1.08001286024974
H          -1.00328535597761    1.03169187036923    2.53803865822562
O          -1.79601910493394    0.47006316922331    2.67482755524458
H          -2.38071053526619    0.97302891071038    3.24580964445984
O           2.41754079220341   -1.16582675674619   -0.80382942762256
H           2.06430952312899   -0.60352213792233   -0.09185906421122
O          -2.20904329441287    0.51611983185054    0.03626488282498
H          -2.19014193051521    0.38581721826557    1.00985490068864
H          -1.48900533341115    1.15031609345971   -0.14420658843571
O           0.60288287774618    0.33300147100228   -2.41183948369980
H           2.08958685481057   -0.76017143037039   -1.61457022228803
H           0.50677375915166    0.88296839499727   -3.19083636765336
H           0.45081039644525    0.93749896348207   -1.63579741568574
O           0.52326857131096   -2.67008467289590    0.39051094713577
H           0.46085949164227   -2.00461613553815    1.08954239818776
H          -0.50408014362404   -2.03786043514410   -0.59743383591117
H           1.35580918927025   -2.43108726841234   -0.06986211127560
N          -1.10604191363365   -1.46022132960589   -1.27237021956765
H          -1.65078655502516   -0.73436825587320   -0.69848871370777
H          -1.72695068288424   -2.04693547383924   -1.81781622902114
H          -0.46454063020815   -0.91132606490238   -1.87824047193176
