    26
        -50.45996615  Gyration_radius:  2.46141094305 Dipole_moment: 6.427
 S           2.08087505172287   -0.05284569771737    0.00963698439164
O           1.44344942520356    0.82686922495470   -0.96930993798789
O           1.66908148375884   -1.43066134757846   -0.14155002653479
O           1.93815919280141    0.46291487829433    1.35708124326165
O           3.62724461968886   -0.01094735264566   -0.31807988301796
H           3.86108586325017    0.85125923583093    0.00693867373721
H           0.57189470496392    0.19972522327335    2.15334033801983
O          -1.64800987659837   -0.98802584872431   -1.73950235803108
H          -0.84352743030327   -1.25245290233328   -2.25167833862428
O          -0.28567500954321    0.00396543761076    2.61166619171666
H          -0.04657581252181   -0.31246936952258    3.48435431748222
O           0.81577997787811   -1.31519297401511   -2.66327477274599
H           1.20018067320779   -1.54959853482300   -1.79667456325390
H           1.11875509641207   -0.41604061114367   -2.82105843183762
O          -0.87499115013002   -1.83784605204188    0.63490183901823
H          -1.52794387024470   -1.41252919234927   -0.85305633803994
H           0.06446983470034   -1.89877772796604    0.38330641456435
H          -0.88189101588417   -1.25256285242896    1.40860762405564
O          -1.02681367618100    1.33971230889736   -1.19586735089913
H          -0.02454516317535    1.21642644834495   -1.09518524861687
H          -1.38193094486121    0.34519058343875   -1.48821272286090
H          -1.42922837970757    1.53095419926646   -0.23806031659738
N          -2.01401354073142    1.72155201002126    1.12965658398001
H          -1.99677731279978    2.68316213043885    1.44333390990351
H          -1.44262950312278    1.16529714264090    1.76685358169104
H          -2.96642323777491    1.38292163028043    1.18183256722541
