    26
        -50.47391934  Gyration_radius:  2.44000919756 Dipole_moment: 2.197
 S          -0.83994823214021    1.42950020457597   -0.99404455834154
O          -1.54031355808929    0.17039167267162   -0.79327257893753
O           0.58179181530830    1.20523085132462   -1.22017224629932
O          -1.09566867127315    2.41775317170147    0.02790264028770
O          -1.41949965969859    2.03340001698009   -2.33716570228859
H          -1.27628403796781    2.95970666092283   -2.18130850616762
H          -0.58325128518110    2.00494502714136    1.52580527007497
O           0.51998646068777   -2.16883793563934    1.31080960046382
H           0.17424695754623   -2.22767820124543   -0.15170625983604
O          -0.26586707645758    1.66544163570009    2.39601916002035
H          -0.41617787008353    2.36769915203193    3.03048866516355
O           2.02357299765718   -0.77218579398658   -2.23550699286098
H           1.55318109308219    0.06174497099224   -2.02432408069230
H           2.78002566990024   -0.79224902221483   -1.64393701782492
O           1.69002797266179    0.22290860294927    1.03756736048514
H           1.13006098107795   -1.39674122051052    1.31240771843581
H           1.36592688396969    0.61426070694581    0.20584026964393
H           1.23356818603459    0.71959086231771    1.73193273109861
O          -1.62781638797117   -0.68470434661065    1.82114381271671
H          -0.32085904852463   -1.80044817820417    1.67183619640162
H          -1.22945725680845    0.08209567571455    2.26232225720172
H          -1.79905353273515   -0.38900366234590    0.91218150985126
N          -0.10029919263112   -2.01684008069113   -1.18756950093351
H           0.75963684113423   -1.70954358158275   -1.70320143288804
H          -0.74670744465491   -1.18966047025603   -1.13945919230885
H          -0.55082260483309   -2.80677671866193   -1.63458913244137
