    26
        -50.47391800  Gyration_radius:  2.43996449725 Dipole_moment: 2.216
 S          -1.41537304999998    1.15283799675228    0.63151391558409
O          -0.99182773482604    0.06672524113623    1.50572427802035
O          -1.38279061118353    0.74190570324083   -0.76343082533446
O          -0.72062732664591    2.39034616318667    0.90003326505810
O          -2.93830231131997    1.42748883083588    0.96204048947492
H          -2.84750348423036    2.04808717026969    1.67583551840906
H           0.89233026087661    2.34516476955626    0.63007583280765
O           1.65619882779977   -1.37277809152623   -1.43518699627407
H           0.20257301051524   -1.75133342618622   -1.37877757716968
O           1.84924130667698    2.23688075386924    0.41603730891926
H           2.27215299971009    3.06585785828116    0.64463915251676
O          -1.08514511983956   -2.57708032587154    1.37039334677642
H          -1.18300032588771   -1.62222405772405    1.57049031018100
H          -0.23939211811716   -2.82937971029814    1.74905975754038
O           1.62207119214303   -0.45832742817966    1.07932359656903
H           0.69054924169760   -0.29461284310808    1.31494468078561
H           1.82279156608453   -1.18214230105502   -0.48414773758465
H           1.99678984663597    0.42468344406973    0.94908908441422
O           1.03868385047040    1.15062806344784   -2.00649655643293
H           1.51094713159712    1.62560511400255   -1.30446529625964
H           1.58487243418456   -0.47693024739544   -1.84208141978301
H           0.11298738870171    1.12781920975751   -1.71407482084559
N          -0.87074001304504   -1.82176452219034   -1.18784497528401
H          -1.19732184882828   -0.82939382037756   -1.07461303997715
H          -1.01465006442679   -2.30268431894702   -0.26718123687880
H          -1.36551506875399   -2.28537925554114   -1.94090002521293
