    26
        -50.45538182  Gyration_radius:  2.56577686779 Dipole_moment: 4.088
 S           0.95396112539058    0.40986484363786    0.15212351278756
O           1.73639626834699   -0.80173542091880    0.14196797662793
O          -0.41580832084815    0.15078060922424    0.66093287254320
O           1.58929132877147    1.43631625250397    1.11548569098553
O           0.86074282756362    1.06420110065872   -1.15084400157797
O          -1.93442781784595   -1.29489815074249   -2.48381157659949
H          -2.10658147304336   -1.07515674561607   -3.40167921431326
O          -1.13238609696831    2.52226850509093   -1.91926334336105
H          -0.27961449230400    2.05638669824617   -1.71623169380931
H          -1.08857664409493    3.36824459390441   -1.46985017354073
O          -2.33491444269950    0.57216075436381   -0.81531765315531
H          -2.00748557513506    1.41146030609118   -1.30126635140312
H          -2.26806653318546   -0.20773473248866   -1.49215360999018
H          -1.53909328682758    0.37541059277039   -0.11471457280107
O           0.67156010161441   -1.31310873561338   -2.30200609013858
H           0.83006430323223   -0.36027990460109   -2.17604363257018
H           1.09865266557560   -1.69555182200249   -1.52373865430396
H          -0.94799127817672   -1.42209991957642   -2.41059732180370
O           2.60214063094543   -0.32702812057217    2.64248794767380
H           2.05799132797072    0.87613213358453    1.81564609674945
H           1.76872061940917   -0.62552261260751    3.08396157222402
H           2.65119815298704   -0.85469211703725    1.83092405341868
N           0.07853880231567   -1.03014560715766    3.25189018512464
H          -0.46864221432581   -0.56692544834394    3.96645943826660
H          -0.16466846232863   -2.01269494072699    3.26680371419581
H          -0.21100151629792   -0.65565209207612    2.34883484878983
