    26
        -50.44218318  Gyration_radius:  2.62805508386 Dipole_moment: 1.541
 S          -2.06469400618925   -0.79458593925806   -1.44138200348164
O          -2.03329039822602   -1.03976619965262   -0.03470577528931
O          -1.08806261407950   -1.44692643749426   -2.25302851762688
O          -2.04821877994948    0.70382172371014   -1.71781517632411
O          -3.48522925100985   -1.24613902573803   -1.95976024137485
H          -3.41347274352991   -1.34934753472328   -2.90611552943406
H          -2.21837754614131    1.21153788159787   -0.81161192080259
O           2.14979043204182   -1.66124470326161    0.35582785522421
H           2.21935360786251   -2.52273659968233   -0.05686293538840
O           0.24528129302630    1.37265594417478    0.84233997784498
H           1.17368202745956    1.63020932877831    1.03533358298200
O          -2.32569487025624    1.67848049045145    0.55208081930147
H          -2.55451648129890    0.85248627582648    0.99621104018175
H          -1.36399916905761    1.81283305444795    0.74020986294869
O          -0.03400861011930   -1.04442004130672    1.89788028235563
H           0.13243682266774    0.53134255954741    1.35043035555153
H          -0.77413327701293   -1.29292392455065    1.32827866605102
H           0.77235931087829   -1.40091685673187    1.47793049499019
O           1.08356884743685    0.02476664804497   -1.39607040931624
H           0.69610061655699    0.63927803046740   -0.74223896827896
H           1.85110545849791   -1.04081491849046   -0.35525609380443
H           0.35819744400901   -0.45775828714403   -1.81447396156157
N           2.92561435536212    1.31164025738617    1.23489322769547
H           2.92415743560781    0.29661013393915    1.21450166820651
H           3.44738000622067    1.60483930282233    2.05109606989484
H           3.42467006923113    1.62707881686474    0.41230763948400
