    26
        -50.44218273  Gyration_radius:  2.62689036429 Dipole_moment: 1.567
 S           2.18415573669806    1.41819554146269    0.41650165954069
O           1.59680586380502    2.34675871509953   -0.49511770990243
O           2.28655676469285    0.05458442853302    0.00433834740885
O           1.48807017420960    1.51155517785456    1.76862666673295
O           3.64793433660579    1.92207660821887    0.72340576714189
H           3.61735218451617    2.87624220748996    0.72094595338861
H           1.41980718993594    0.54293160506484    2.17551060743416
O          -1.15619594529801   -0.03991703988980   -2.48318290960376
H          -0.82860088836452    0.48048973634565   -3.21746110025301
O          -0.82937888213490   -0.99503104721645    0.99043899894494
H          -1.77179547624143   -1.17050692226097    0.77481654623449
O           1.31923791815794   -0.87046183588860    2.45825981022997
H           0.40377671504886   -1.02639225329061    2.11767844154631
H           1.90359021565065   -1.22147439295725    1.77469996926272
O           0.52519463566822   -1.75591608337318   -1.15869447351119
H          -0.03564754020435   -1.25410329346357   -1.78110481622578
H           1.29215899991909   -1.19949164973666   -0.96849382964854
H          -0.34258439921537   -1.40030474976085    0.23049061469919
O          -0.99747822749906    1.43228241348371   -0.27890561022178
H          -1.18320434401507    0.57165392701236   -1.70543914256132
H          -0.92126458820165    0.68836547473635    0.35037254130231
H          -0.13647513149974    1.86897282488711   -0.32519072482060
N          -3.18913848640392   -1.22994621008805   -0.32003231017502
H          -3.79475712239221   -2.03712737863771   -0.39840200570191
H          -2.72899955600609   -1.09773450096750   -1.21531226050791
H          -3.76912014742479   -0.41570131265610   -0.15874905073160
