    26
        -50.45841241  Gyration_radius:  2.47259126957 Dipole_moment: 4.873
 S          -0.17698380065069   -1.05540208912791    0.11451150114500
O          -1.12650300119256   -1.71321109380619    0.97411389962742
O           1.10015839286662   -0.77384577096298    0.77077303229176
O          -0.71757663978720    0.15822406051966   -0.50660084447044
O           0.17999259283112   -1.99952594147325   -1.08877654230452
H          -0.71980825072737   -2.31615148684443   -1.39951825395753
H           0.24326852468377    0.48209666897549   -1.76365703916414
O           1.02286466686223    0.55019539949876   -2.37438049494992
H           1.15562001589791   -0.34067685623586   -2.70956365939578
O           1.59442520535331    2.98248744266786    0.73658027203456
H           1.38518494783321    3.69097619203531    0.12473058393146
O          -0.44990231535106   -0.10915739696452    3.05855506668863
H           0.49053748965330   -0.30393385756360    3.02152280362711
H          -0.85903819458758   -0.75486008845348    2.45775119924588
O           2.51642923903737    0.92063111480828   -0.35308118368579
H           2.01283075468477    0.16699900601985    0.18275236841332
H           2.05326439489069    0.87139403776208   -1.26712158238478
H           2.20481197413417    1.81897352041756    0.10726022118191
O          -0.69072083884188    2.02419885693445    1.41595436309532
H          -0.85475334087064    1.42971489637894    0.66028847043739
H          -0.66352057165297    1.42643551139293    2.19089647060260
H           0.70723611734247    2.65143613704724    1.09401469985677
N          -2.35023066190447   -2.46927680727394   -1.44783382140194
H          -2.38025381601981   -2.31672020523319   -0.44200389844510
H          -2.84778040889205   -3.32367953890710   -1.66393120842791
H          -2.82955244560031   -1.69732174159549   -1.89323641359349
