    26
        -50.45841231  Gyration_radius:  2.47247819212 Dipole_moment: 4.875
 S          -0.06888327022983   -0.87392040928809   -0.62462217841084
O           0.69109609874790   -1.26919306757148    0.56166385956813
O           0.62091731544564   -1.14385455494959   -1.85939029114597
O          -0.51205090669337    0.51974436502096   -0.51394669326856
O          -1.38894757441366   -1.72272231940938   -0.56724278450897
H          -1.79444550380543   -1.56772868626318   -1.47168365085545
H          -1.64610808861436    0.53668262752272    0.63553076734599
O          -2.19483765886116    0.32713370285964    1.43583806099636
H          -2.66162158656023   -0.48275766274753    1.21270695168401
O           1.29559002724357    1.85679279833921    2.61756783039518
H           0.79616832852417    2.65381445531788    2.80585289615046
O           2.97154474020951   -0.27618485717836   -0.81209094616454
H           2.95078578979859   -0.85959619456053   -0.04861556252570
H           2.25337434023444   -0.59464738496003   -1.38488383853499
O           1.68778312224169    1.92947316486597    0.07935596246781
H           2.35528373806136    1.29033949024486   -0.24397999071671
H           0.83775370736703    1.56644282101144   -0.23214160058868
H           1.54676964811567    1.90999412865750    1.63850633430834
O          -0.06295122537862   -0.24973790060737    2.69073843292390
H          -0.99660640946396    0.02282101701574    2.36409110829394
H           0.31500497023176   -0.76321013457415    1.85299272253319
H           0.51973831555639    0.63008180418559    2.74118652923541
N          -1.95321106549869   -0.97619085018919   -2.99128049513251
H          -2.33007990104442   -1.48964213982971   -3.77771373135258
H          -0.93894740811393   -0.94974976873054   -3.07159949720127
H          -2.29311955314241   -0.02418443468221   -3.03684018552532
