    26
        -50.45841233  Gyration_radius:  2.47266829799 Dipole_moment: 4.871
 S           0.45203075432416   -0.94888814838388   -0.22747791727557
O           0.02704949825184   -2.26132985549102    0.18504462303638
O           1.32661773701089   -0.29165908343492    0.74420521524725
O          -0.66950035821103   -0.07516993717682   -0.58752939689730
O           1.30951644339674   -1.06552265517629   -1.53801953007008
H           0.75706436231762   -1.67372605107946   -2.11379841693040
H          -0.03436285598775    1.12636037074151   -1.46080579620788
O           0.58216961703037    1.80478389498723   -1.84130993897847
H           1.20631920188872    1.30391779761948   -2.37344029516241
O          -0.40570744645183    2.88419570657343    1.87049081379696
H          -0.96794321179447    3.53786584248110    1.45014751387742
O          -0.37470947558602   -1.40477026495422    2.73043140586118
H           0.50984750907792   -1.04759722369296    2.84744088666098
H          -0.33034229556485   -1.90570800353224    1.89836628829408
O           1.55167990728329    2.16179504763498    0.47959933924301
H           1.55473189524021    1.12435343052910    0.65912343045530
H           1.22036355443589    2.20404136379140   -0.49027445743689
H           0.77305606744225    2.52920126548596    1.09203461860482
O          -1.75101331537878    0.69945586588565    1.73792030739502
H          -1.40510399407739   -0.02283733604993    2.30123288035346
H          -0.95344972262655    2.03429870132838    1.91791261099381
H          -1.53068641212087    0.42138028940487    0.82932539750321
N          -0.49335890169045   -2.63395165873705   -2.55796138892712
H          -1.31720449985819   -2.13312206726716   -2.86494414900396
H          -0.62761221340429   -2.88708080988115   -1.58132891094379
H          -0.40945186496588   -3.48028650161423   -3.10638514347581
