    26
        -50.45866515  Gyration_radius:  2.70424366714 Dipole_moment: 5.344
 S          -0.23531992406422   -2.63941114876319   -0.06913900968727
O          -1.29344069370471   -2.35757654119946    0.89001084078758
O           0.96864744027131   -1.87678370277560    0.18680559385690
O          -0.71458071966168   -2.52045734001624   -1.43930896963594
O           0.15927592843278   -4.16548682219270    0.12467406045126
H          -0.64242128221885   -4.61616971592323   -0.12059142050161
H          -1.07581727276357   -1.03165534055410   -1.61233543730060
O           2.32368681496334    2.26445271954888   -0.22430465497831
H           2.91822807343551    2.69547650169741   -0.83942213112580
O          -1.29094337857783   -0.05594628838547   -1.71181963293563
H          -2.00811732293029   -0.01448808577972   -2.34662427477821
O           0.13820323240054    3.40966228308962    0.65150098356438
H           0.37558156130135    3.74660959738811    1.51713457252580
H           0.97868364599535    3.03996436049452    0.27130807196740
O           1.52287787561655    0.10816517540393   -1.50142866105660
H           0.62979151553668    0.21153364612585   -1.85276936066598
H           2.05619313764861    1.41553446668523   -0.66374501384656
H           1.46973492496345   -0.67511740602067   -0.91735280153803
O          -0.06838759018390   -0.56566984991682    2.26396944792406
H          -0.75408359628251    0.49348946286811    1.39082136253103
H          -0.63700235647249   -1.31583581591312    1.95779724231722
H           0.77081510352587   -0.77346676948080    1.82754910771400
N          -1.28234941750133    1.15456406157819    0.71858176602340
H          -1.30392574439265    0.70568801811753   -0.22440634823810
H          -0.77436537147397    2.07909601565600    0.66855893866391
H          -2.23096462387052    1.28382852826968    1.05453570795757
