    26
        -50.45538177  Gyration_radius:  2.56585862282 Dipole_moment: 4.086
 S          -0.56042991656032    0.86495160979765   -0.19449124828010
O           0.56931518577261    1.67536312448372    0.25434121768092
O          -1.83234684778252    1.52703927216768    0.37920750247349
O          -0.66846421189518    0.75799783445985   -1.62883953357123
O          -0.46945844656601   -0.47781878187927    0.43073768760868
O           3.19240553578821   -1.16287693497255   -0.21071875032090
H           4.06387562186702   -0.80477011169651   -0.02993213095720
O           1.81198817515359    1.34406347417493    2.49841150600948
H           1.26038728578828    1.67494014986486    3.20964476540768
H           1.37215347262351    1.62416362996572    1.65372328108761
O          -3.35133580791986    0.67684138419138   -1.47484430287312
H          -2.56676690606017    1.27975752244844   -0.27119090662701
H          -2.55039983234888    0.73405318524648   -2.01768308865471
H          -3.39581997046450   -0.27114477906193   -1.19563199563274
O           2.04300374661662    0.65409145272843   -1.69437923618906
H           2.77107495480878   -0.54421833898368   -0.86986084228539
H           1.22632547254483    0.44532034430616   -2.16750958030136
H           1.72761100719571    1.25519283247748   -0.99572989738404
O           1.54436450054991   -1.06017214967320    1.71365883798236
H           1.74123366175640   -0.15964932619850    2.15875648553554
H           0.63179754131252   -0.86574339971547    1.17309552871094
H           2.25226145379155   -1.18413283293265    0.96901739813068
N          -2.85028710881153   -1.79574497258266   -0.54248069835912
H          -2.62658872003759   -2.52997173303277   -1.20251460296239
H          -3.36496260198053   -2.21518298096525    0.22157018028885
H          -1.97093726512985   -1.44234948461659   -0.16635759651899
