    26
        -50.45582910  Gyration_radius:  2.54053170219 Dipole_moment: 3.469
 S          -0.50207484255055   -0.61471701041273   -0.47394542306122
O           0.24726454784283   -0.41742486694137    0.79525819767259
O           0.40884340421317   -0.68361566780732   -1.59577748506173
O          -1.50867408127609    0.43540299064148   -0.61464690255962
O          -1.26863633676006   -1.93423024977192   -0.33147222489142
H          -0.56722545583983   -2.71765619770736   -0.32762150517419
H          -2.28818040210794    1.28244230194371    0.52537751306934
O          -2.54143482475601    1.77042341752831    1.35060743559165
H          -3.16055530792320    1.20560964523971    1.81634339946219
O           0.92796564950673    3.29321173636033    0.24378487080137
H           0.50196345743318    4.15000896719132    0.17757225556458
O           2.44695990880547   -1.76334167244437   -0.26855832919619
H           2.21993266555495   -1.31295222047414    0.55129710782150
H           1.86611250805112   -1.34092189617794   -0.93009341004117
O          -0.06334438950867    1.70697867548885    1.96711398666120
H          -1.06768432485686    1.83521951544859    1.86096196530950
H           0.11195135872673    0.73313878363336    1.48476221361623
H           0.38781256534904    2.38670158762623    1.33785066772550
O           0.18717307839689    2.00507255533665   -1.90454562888585
H           0.74407860536839    2.82637807840260   -0.61858331123137
H           0.70749171301267    1.22984794284188   -2.15355767675275
H          -0.63437574144145    1.60256964986455   -1.56678828097999
N           0.50257027193053   -3.76444719136059   -0.32367061113851
H           0.46939121899162   -4.40480342954097    0.45791965402102
H           1.36873246843130   -3.21341133131501   -0.27566230276805
H           0.50394229543267   -4.29548409359568   -1.18392617556832
