    26
        -50.44393141  Gyration_radius:  2.57606946543 Dipole_moment: 4.507
 S          -1.45197701356422   -0.25842594937528    2.21455898274171
O          -1.15196295761589    1.18046576184978    2.33809508098147
O          -0.30891501578036   -0.98427207703508    1.73151258121915
O          -2.66272782165616   -0.47690681186189    1.44186131793219
O          -1.75496314654386   -0.75974691452712    3.68284298684386
H          -2.58729235879058   -0.34648834424269    3.89397996226265
H          -2.21466862415984   -0.11322145290317   -0.02055886566740
O          -1.86343687188761    0.26392255583349   -0.87645687341792
H          -2.59388767898158    0.74297629449209   -1.27350243200502
O           2.13964320674039    0.21162860174287    0.54489050564475
H           2.19884086970217    0.11858637126952    1.49891508603353
O           0.03562968739465   -1.23583021007504   -2.29800058748269
H          -0.76661636979493   -0.87328012080401   -1.90034467391405
H           0.61966491253643   -0.46696328258535   -2.46390309914760
O           1.31599557069964   -2.10210053724897   -0.12973167477398
H           0.63148086213227   -2.05415949204772    0.55492260169526
H           0.85347523574847   -1.95887397556280   -0.98978077533644
H           1.89515441366095   -0.73050856439672    0.21885208423956
O           0.06839170020906    1.58188198051879    0.24306871506597
H          -0.41504963862371    1.51150457666058    1.19730259917928
H           0.96381711379407    0.99600195507773    0.33225727434079
H          -0.57358183296314    1.08952075355399   -0.35439315851157
N           1.70338550056432    0.98038533901571   -2.40801293868795
H           2.31911777700967    0.80928651610042   -1.62095654582886
H           1.33366570792005    1.91773894437160   -2.30885229361527
H           2.26681677227296    0.95687807218400   -3.24856585983434
