    26
        -50.44393141  Gyration_radius:  2.57607161047 Dipole_moment: 4.510
 S          -0.94553444466058    2.29303432135231   -0.96280660949533
O          -0.48159008594870    1.10074260418820   -1.61844145006525
O           0.10036351552080    2.85839114357220   -0.08987063537709
O          -2.19554930773503    2.12463542019848   -0.24182201830321
O          -1.20825391177854    3.38338314879578   -2.07689406580356
H          -1.63107087468332    4.09286082732268   -1.60147948115295
H          -1.88691535700279    0.91799152764475    0.71741103121942
O           1.97048455035201   -0.42734880438123   -0.92381295482311
H           2.13614485833852    0.26490093303694   -1.56857637779427
O          -1.54432666539010    0.24077658335040    1.36720233545474
H          -1.95642677622413    0.44960675273675    2.20818477527195
O          -1.04238560723947   -2.35418472455422    0.42309003199830
H          -1.43652247286792   -1.53192049912305    0.74199980236615
H          -0.17524066350517   -2.42439760801111    0.87362772454816
O           0.95401725402961    0.82243948365582    0.99012233871940
H           1.38965851879250    0.25185984918120    0.19140183023932
H           0.68558252586441    1.76438726047911    0.55465178171511
H           0.05486583125848    0.42762376839021    1.20723355713522
O          -0.07600689903309   -1.56270151057924   -1.92865450632230
H          -0.49307722774157   -0.69603512912269   -2.04949541009588
H           1.20292555184527   -0.97063170405847   -1.33526976849259
H          -0.53041250134609   -1.98020709087059   -1.15836619956967
N           1.50853892781442   -2.25793532326654    1.51293448229457
H           1.72829985944554   -1.62464865046811    2.27184392543787
H           2.06133989167035   -1.97790314820755    0.71058635145989
H           1.81109150017371   -3.18471945125196    1.78519950944423
