    26
        -50.47398591  Gyration_radius:  2.43786769082 Dipole_moment: 2.232
 S           0.96149885161936   -1.65560707281973   -0.15785103590459
O           0.47703199509444   -1.23351076099589    1.14163250605914
O           1.43695906815897   -0.51152837669856   -0.93439278693963
O           0.04040054226670   -2.48358232411988   -0.90073496948555
O           2.23114214321682   -2.55843865478743    0.11909742668665
H           2.22752754418623   -3.09921243572600   -0.66239735849082
H          -1.44561144222368   -1.82926860937890   -1.12040590629947
O          -2.28703075780578   -1.33598303099086   -1.26629548206868
H          -2.89865571386547   -1.95763543460498   -1.66347805952206
O          -0.95136144411421    2.37477446967597   -0.28883784791126
H           0.47275989460961    2.15584902376633    0.13919756949534
O           1.12847748265744    0.68363495758719    2.85365095885730
H           0.28210545588377    0.89550015324121    3.25489428721825
H           0.98547355567514   -0.15935788397261    2.37586908569539
O          -1.81379786482973    0.20136538660622    1.00567623538363
H          -1.01756966113940   -0.34085671860893    1.14920697938285
H          -1.41650879903938    1.72336146147960    0.28474114438116
H          -2.28836214924549   -0.25673706759983    0.29702545978281
O          -0.64145314785019    0.65600595171701   -2.29566055409733
H          -1.36372824385106    0.03171603345134   -2.12407144049451
H          -0.92836755996935    1.93354070046909   -1.17050185719864
H           0.16148173485688    0.21159927085314   -1.97612998742702
N           1.45219771952482    1.76250740575894    0.42053180517320
H           1.56630009765369    0.87281461196134   -0.12926292137956
H           1.43064637621067    1.50306690151303    1.43551703895190
H           2.19844433306519    2.41598203253852    0.21297970149275
