    26
        -50.45582928  Gyration_radius:  2.54055499272 Dipole_moment: 3.476
 S          -0.00888501783942   -0.24100219599628   -0.89353072314478
O          -1.41514861817263   -0.57848462115485   -0.92916323984103
O           0.57659117173392   -0.58387568251451    0.42966649776169
O           0.25258338398374    1.16527624798914   -1.19353779002601
O           0.75921015691439   -1.05746408649227   -1.93889865801220
H           0.51054056270733   -2.07047496288217   -1.80507773768755
H           1.47244770494099    2.11607488776917   -0.71200580694938
O          -0.86709768360878    2.42174624038492    2.27325538967330
H          -0.83142216043367    3.37879326106344    2.32595111863463
O           2.20547320881038    2.54997987301782   -0.20432453288782
H           3.02146091020329    2.27900053231485   -0.62852802051354
O          -1.27762465037035   -2.64587759982133    0.74050820385123
H          -0.56344043427507   -2.25359567951907    1.25285271759552
H          -1.56593044199019   -1.91883613754587    0.15588802723135
O           1.35396562144163    1.26379333167246    1.83141909252860
H           0.47750704068117    1.73386929478438    2.10026973483869
H           1.02486953018201    0.39436290150623    1.24237536295571
H           1.79903468477451    1.85594012198503    1.13278739209990
O          -2.00011385439425    1.91691806421534   -0.02608409043352
H          -1.20415613112257    1.90054953029720   -0.58936336458497
H          -2.36276635871347    1.03109522268822   -0.15740981568734
H          -1.39295236382911    2.21003985226843    1.45242850795163
N           0.10367653879790   -3.48507432363199   -1.53479409406672
H          -0.43314819021999   -3.41149032586746   -0.66154733022023
H           0.87004681771524   -4.13113447992797   -1.40319702880840
H          -0.50472143746389   -3.84012924648842   -2.25993981202282
