    26
        -50.45582922  Gyration_radius:  2.54067012237 Dipole_moment: 3.466
 S          -0.79201409611214    0.10285969047134   -0.46598706051686
O           0.16945803557031    0.81245531246385    0.41886209004594
O          -1.51212800464241   -0.90971026544460    0.27480877038892
O          -0.08377336497036   -0.42979619967054   -1.62822894490113
O          -1.76367449949941    1.16198031971635   -0.99852709052232
H          -2.35554778719455    1.49203023329474   -0.19452419818511
H           1.26071281755045    0.10446415216006   -2.35712916975638
O           2.14540630510202    0.50320876670250   -2.56126643612441
H           1.96843033901579    1.32843952322734   -3.01612551829863
O           2.77165423692360   -1.97288790083706    0.44840186418159
H           3.39071518362745   -2.45049358134398   -0.10713254418256
O          -1.47963469006786    0.34690324874892    2.62023489509630
H          -0.62564984830859    0.75642312211772    2.44837015127366
H          -1.57396855767679   -0.29890217880441    1.89393605065148
O           0.40932934722060   -2.71336371944013   -0.38543047176641
H           0.27363736091684   -2.04197300169070   -1.07963583139752
H           1.86663748233784   -2.32334457648621    0.21747825295075
H          -0.33825447006773   -2.55203845981653    0.20490563574119
O           2.55350519236201    0.51355552435191   -0.03992120061433
H           2.55687247308819    0.55925050363991   -1.05710049345506
H           1.49599512633581    0.68647857181446    0.21006359427189
H           2.71541382957240   -0.47265227812773    0.21048021847426
N          -3.14301890819276    1.90471554211968    1.00967741887380
H          -2.65459428489462    1.43338400599555    1.78132556595510
H          -4.09200279232261    1.55886122682374    0.96762847203850
H          -3.16350643549218    2.90015241808695    1.18483598994294
