    26
        -50.45038852  Gyration_radius:  2.64267743048 Dipole_moment: 6.838
 S          -1.35407279787569   -0.81668762138485   -0.40600970424249
O          -0.44808604255752   -0.81368624981607   -1.50736968220695
O          -1.65777324292893    0.61640437984243    0.06139428944897
O          -0.90800393502901   -1.58125484095851    0.74303419671597
O          -2.73226977043297   -1.31648593745526   -0.84795381618138
H          -3.26960401595172   -1.32641759599081    0.02312272738824
H           0.68273327834147   -1.25329112951254    1.06720551168694
O           1.71800910191850    2.52460111960688   -1.03951974564335
H           1.33693414890644    3.29840077183748   -1.45521995186153
O           1.56007338515878   -0.88890362979294    1.32347439685610
H           1.88653452158337   -1.43995146847822    2.03737487453080
O           3.37657085689024   -0.18250976771104   -0.69497048182361
H           2.76140835152070   -0.52868259819898   -0.03009786295104
H           3.46908600205529    0.75600263217542   -0.50938764173741
O           0.42419878065279    1.58198737238074    1.04472393940573
H           0.94068943089781    0.79086629801701    1.28099717959947
H           0.91489600963611    2.00533528289378    0.29040471129799
H          -0.80793755483774    1.07209158313633    0.48596817347799
O           1.62932458969868    0.49543305187825   -2.68928277203593
H           1.67546358057371    1.79555228833556   -1.72273879714351
H           2.36245162424947    0.02828697297450   -2.24863378284107
H           0.83158576285948    0.00279394702071   -2.44064771544585
N          -3.61918399314290   -1.23067357892555    1.55434498722036
H          -2.68238719050383   -1.48525062310689    1.85205474043715
H          -4.29567097809246   -1.83236688446352    2.00495794449361
H          -3.79496989360035   -0.27159377430318    1.82277427156118
