    26
        -50.45538183  Gyration_radius:  2.56584436944 Dipole_moment: 4.082
 S           1.03382948886905    0.09129775040285   -0.15152227156725
O          -0.09276480717681   -0.35375695132561    0.70585198750071
O           2.30221009627733    0.02527312113203    0.72721462573389
O           1.18411941140308   -0.77592085389321   -1.29419990823410
O           0.84026651896711    1.49737754183430   -0.49789102454022
O          -2.95038156005183    1.10462658548159   -1.29287606056467
H          -3.27905419395025    1.94147482333941   -1.62766231569377
O          -0.47080023682956    3.19477962830492    0.94757711202922
H           0.11959879006895    2.66744355113191    0.34857369405280
H           0.06216715220700    3.42922825237268    1.70954984950210
O          -1.99539648854675    1.16210668784724    1.05546487346431
H          -1.18916656654806    0.45360249207745    0.95066703011434
H          -1.50477072516632    2.05935000789264    1.10045157461695
H          -2.47388398307604    1.13094677375903    0.13839323664223
O          -0.67931367701423    0.75852424165398   -2.53676625715052
H          -2.14076034316409    0.88936357477172   -1.83396496452661
H          -0.10048613680908    1.29448968043571   -1.96524713714367
H          -0.24341764742262   -0.10398588864446   -2.51707133482268
O           2.87875924749344   -2.36104418464896    0.06383275192925
H           2.67550207696839   -0.90209916883831    0.57107772595548
H           2.17324223972595   -2.82390926265626    0.58014525380163
H           2.45239904165611   -2.12304857175451   -0.77343679926107
N           0.60855540682758   -3.09191931023507    1.30728917811185
H           0.24859129723426   -2.15357880510167    1.13533684900773
H           0.55259891843777   -3.26485865262548    2.30306092144379
H          -0.01164335039816   -3.74576307270280    0.84615139959093
