    26
        -50.45754061  Gyration_radius:  2.44566921951 Dipole_moment: 4.170
 S           1.57889609006133   -0.42680657850259   -0.28095261696003
O           0.71069123195556   -0.62047966400385    0.88748815640412
O           2.34533833567035    0.80214139254143   -0.16948370207626
O           0.76381323358500   -0.45201361015025   -1.49763319806750
O           2.57569901955179   -1.60490804473226   -0.33453293371130
H           1.96934168036088   -2.39148865118161   -0.46939601175437
H          -0.00830632934467    0.93785311649930   -1.65972762750387
O          -0.47320101606830    1.81652076926143   -1.67309800553180
H          -0.27238779337810    2.21065859623185   -2.52380801022355
O          -0.15577956067899    1.47827581468940    2.19367970705905
H           0.22530996233428    0.61957078863642    1.88132916844503
O          -2.64964333745431    1.02894595066724    1.50139461973943
H          -2.43006964323290    0.30961955899461    0.86223947126518
H          -3.22868892952183    0.64023478340011    2.15837065169703
O          -1.72723272964214   -0.90587172458544   -0.08699632050483
H          -0.82555320581620   -0.89143742963480    0.30460733096638
H          -1.13342521335816    1.41117243897579    2.01510091699210
H          -1.61404873191462   -0.55812327766498   -0.97557478282799
O           0.83619885226209    2.74678571965114    0.34135314876933
H           0.34903580335975    2.28402022181713    1.26102155874648
H           1.59319246167974    2.07771022265601    0.16436893738179
H           0.20586808879748    2.56119142348747   -0.42682277215612
N           0.59159093220071   -3.22217483484903   -0.79671681420505
H          -0.01210729176812   -3.26778937606171    0.01430030328328
H           0.53684872473352   -4.10317049635770   -1.29122724569713
H           0.24861937556643   -2.48043709977094   -1.39928391954306
