    26
        -50.45054790  Gyration_radius:  2.51922602446 Dipole_moment: 7.515
 S           0.14834677956942   -0.93365429370544    1.02152704682718
O           0.26687556348032    0.55916867149544    1.35203442739484
O           0.97320297261315   -1.29046251149006   -0.09190086991283
O          -1.25744046446050   -1.23781392531857    0.83556907885946
O           0.65306040494561   -1.60602307601342    2.29335651364093
H          -0.01867994118649   -1.29510195004700    3.00926568435427
H          -1.77142771859643   -0.72234570946118   -0.65222200304955
O          -1.99286845095097   -0.27346637840261   -1.49993343973729
H          -2.93199181944279   -0.40490405990708   -1.64235420903536
O           1.44107682826887    1.57369172197307   -2.46203187105789
H           1.69431945805240    1.98742146203346   -3.28763580468330
O           3.04283100708447    0.63911266508702   -0.25058907247093
H           2.66187208190708    1.11219391756470   -1.00048316902495
H           2.48482985765078   -0.13599816987228   -0.12342630131623
O          -0.50634237317052    1.86795730611595   -0.64743707160167
H          -0.01244465591352    1.16821009407974    0.55181639140820
H           0.25611164680542    1.92783163336748   -1.26324802014619
H          -1.12977867156974    1.24190777907947   -1.05942075256742
O           0.45143066851162   -0.85804827180048   -2.74576276761686
H           0.80298699369050   -1.22061019071021   -1.91725483781257
H          -0.49241922499261   -0.72856216032844   -2.57439762989197
H           1.15185471538928    0.64938720721168   -2.67689283530063
N          -1.26151000065597   -0.63101713642162    3.66846115397181
H          -1.07216833256476    0.35453279939837    3.79500442031307
H          -1.70663398351944   -0.99802070475476    4.49914728970402
H          -1.87509333080065   -0.74538670879087    2.86880863860969
