    26
        -50.47250312  Gyration_radius:  2.48725688793 Dipole_moment: 2.887
 S           2.12936145375849    0.04618687822159   -0.77968992899476
O           1.13486110668011    1.09394965739712   -0.65044804010615
O           1.66741555146438   -1.04168174045064   -1.63328794797263
O           2.62986630739256   -0.43605040940778    0.49329681490762
O           3.36665013567642    0.70230428868495   -1.52018285631641
H           4.01558399489375    0.01185146112234   -1.43809213747381
H           1.46687199040288   -0.93876228987305    1.45956038151579
O          -2.29260426372578    1.20365490295636    0.94118760380940
H          -2.90683534574337    1.74475577051907    1.43759455561862
O           0.72603805360238   -1.18809482652289    2.07215820173749
H           1.09734249095223   -1.81739323239338    2.69220583020800
O          -1.35023323857533    1.47007590131305   -1.63482594420373
H          -0.41209138692698    1.58276998234562   -1.39383826795563
H          -1.83140602706847    1.51520244128313   -0.78828990052751
O          -1.67068595940658   -1.47548155240522    0.79004830469752
H          -0.83518854479937   -1.46616825415603    1.29430641289903
H          -2.06027328995725   -0.59243491812610    0.92250604910265
H          -1.26299819645048   -1.40733372430410   -0.75155000739028
O           0.14759434349656    1.52135335917817    1.79506384545005
H          -1.38256432455990    1.39508392432895    1.31227054278238
H           0.36185612179552    0.66671149784406    2.19705089680068
H           0.61384663946678    1.50967960232441    0.93505116347276
N          -0.93666211612333   -1.12362346682887   -1.72191316669073
H          -1.21152729971111   -0.10316490782551   -1.85117976569603
H          -1.32822873187868   -1.72065378484052   -2.44098573301658
H           0.12401053534558   -1.15273655038449   -1.73801687665881
