    26
        -50.45754054  Gyration_radius:  2.44556643053 Dipole_moment: 4.170
 S          -0.02623975874251   -0.08509026192296   -1.65713744700519
O           0.99974324157637    0.83559584292785   -2.11532434166333
O          -0.93258444323052    0.56166077637148   -0.69978645790954
O           0.55161261131947   -1.28222204473214   -1.04219643718933
O          -0.85837975010121   -0.51739555612381   -2.88400410109640
H          -1.49094850302958   -1.18634217875160   -2.48786012596370
H           1.70065502844127   -0.85898670586043   -0.01531201023249
O           2.37952996397886   -0.51355129654497    0.62358038200649
H           3.20254309786343   -0.95137490245889    0.39930093129265
O          -0.03875876613403    2.53559385082682    0.77213641951198
H          -0.52706611959335    1.91540445419680    0.17461076073841
O          -0.27692203756087    1.14736779384579    2.98961460640768
H          -0.48439376147782    0.29703257964699    2.53355811108425
H          -1.02537513990578    1.34094262678944    3.55556064931106
O          -0.87429021251736   -0.95566331535761    1.46067405057577
H          -0.98799503606579   -0.41722310131169    0.64597158960711
H          -0.07775419936045   -1.47015345367877    1.30570973919247
H          -0.09521732135206    2.12500660915062    1.67784965924179
O           2.14751525837187    1.92855442985857   -0.16407517312394
H           2.36087364213880    1.05620501734608    0.29994277198761
H           1.77796564762322    1.60715913143778   -1.06541321532338
H           1.19991450949089    2.31975860325730    0.33155933890626
N          -2.13231826736247   -2.21651065476104   -1.38184657538371
H          -1.22074045207350   -2.39613029595312   -0.97240203202136
H          -2.58291007574304   -3.09863890827137   -1.58802208573226
H          -2.68845916655507   -1.72099903990776   -0.69668900722814
