    26
        -50.45538178  Gyration_radius:  2.56582709144 Dipole_moment: 4.087
 S          -0.49284794209576    0.54449832240084    0.74903662802486
O          -0.11683379304699    1.16703808404053    2.11148073552673
O          -1.67524090898530   -0.26916431776961    0.89209023623277
O          -0.64938056609620    1.65521302550112   -0.18709344487124
O           0.66856426270184   -0.27908928707743    0.33053127444377
O          -0.10932701015913   -0.53441480841391   -3.35985327695917
H          -0.24834794210915    0.01298702946840   -4.13537889428845
O           1.27634701304610    2.69058618906173   -1.56887946017946
H           1.82122639951259    3.22532049012766   -0.98858244610076
H           0.47452748869993    2.43817621204995   -1.04085511589920
O          -2.08422162307896    0.08793289959794   -1.76731314965310
H          -0.91139049622417   -0.40314146367348   -2.78178336983823
H          -2.27741374872989   -0.46617360821260   -0.99916341352302
H          -1.71159235925775    0.88800071011573   -1.35506402973303
O           1.76131185629128    0.20630735907643   -1.81662972764359
H           1.33417092571060   -0.05297037871787   -0.86099180748501
H           1.06658315012309   -0.13986851434620   -2.50115550609410
H           1.69718454184557    1.22780711647286   -1.82448569984762
O          -1.10666043465075   -0.73541827735726    3.47818900857559
H          -0.41161208687578   -1.41523951922176    3.29546430357247
H          -0.45827991372885    0.50762962401333    2.79870387291584
H          -1.72444791090084   -0.81194171937071    2.73528878979589
N           0.79268943159119   -2.29999527442642    2.39262869293757
H           0.82404028192788   -1.65932584532802    1.60006302762677
H           0.53017134551474   -3.21113070058603    2.03807955998186
H           1.73078006898218   -2.37362332743422    2.76567320252075
