    26
        -50.46691586  Gyration_radius:  2.45758832947 Dipole_moment: 2.736
 S          -0.89666301363742   -1.50398651024618    0.83145023517029
O           0.13786346172507   -1.72971309757185   -0.15985323599837
O          -2.22188067633267   -1.87206057898053    0.41875759976004
O          -0.79145990442420   -0.17020291061928    1.41793712834766
O          -0.53574038807067   -2.48460783171505    2.05692008192873
H          -1.17481786337508   -3.18460950431048    1.96643826721098
H          -1.18748304030164    1.24583507159761    0.70931737242755
O           0.37981326856184    0.34191369126644   -2.88506980270245
H           0.11503030421038    0.41470633476202   -3.80275982202035
O          -1.40547762449364    2.05917482594934    0.19819256030722
H          -1.80600405869370    2.66970510758020    0.81860767536468
O           1.53513143757422   -0.37096908119037    2.63474571229984
H           0.61561590045937   -0.21514672782731    2.33051868272850
H           1.53675301989359   -1.27677240240709    2.95092936862649
O           1.03067637035994    2.17066279601575   -1.05056146073508
H           0.82550686747657    1.67192223261655   -1.86994140906170
H           0.16914859840831    2.29290558458559   -0.61084832253385
H           1.70936466115248    0.96110004074323   -0.34791106055910
O          -1.93280715892592   -0.08068250345149   -1.59490645982867
H          -2.11446478997210   -0.79615905677849   -0.96555876822448
H          -2.00465285150866    0.74738301280132   -1.10175692380835
H          -0.41815903181643    0.02737198305063   -2.40457004386199
N           2.05948915047193    0.01454546228970    0.02130071975089
H           1.30663876426040   -0.70534746602542   -0.19267112333043
H           2.13666369873480    0.01399554751947    1.05905295676062
H           2.93191488826414   -0.24096401966160   -0.42775993802289
