    26
        -50.43922917  Gyration_radius:  2.65984566239 Dipole_moment: 2.198
 S          -0.68285464046954   -1.45924598242404    2.19431872397058
O          -1.50934823956674   -1.65437385221526    1.05330956954166
O          -0.52653353727620   -0.11982283379540    2.67400605676440
O           0.69112343837313   -2.11138508142918    1.99596701939119
O          -1.27391507925334   -2.32391031543983    3.36671690802186
H          -0.87796095211132   -1.97833719054379    4.16319255510834
H           1.42192000969468   -1.42310861872992    1.75439182887560
O           1.45833425032848    0.28314147761017   -0.92808698253145
H           1.31688892441493    0.97815658397999   -1.61274086872898
O          -2.11499096913331    0.86085092683033   -1.46273899787208
H          -2.94144596815228    0.54486524655241   -1.09481274134526
O           2.50296822821788   -0.50716092711998    1.31376432300839
H           2.16679768150246   -0.11031569859880    0.46863704444896
H           3.27002496031720   -1.03190964510090    1.07173313619610
O          -0.51050911113952    1.59517883299944    0.54193158575766
H          -0.59413220141548    1.11383711378485    1.37835834603683
H           0.30381043970790    1.26171011841831    0.12514948371415
H          -1.59850659658633    1.20965689143373   -0.69638019931224
O          -0.52889938160751   -1.36943170288090   -1.48628189124424
H           0.81991260839981   -0.42993421400789   -1.17749236075920
H          -0.87039472883278   -1.69129048486413   -0.63874761261687
H          -1.13144118144253   -0.63641443267591   -1.71985555804154
N           0.47871032042056    2.08815952094567   -2.68672075207333
H          -0.47692352119740    1.75705524073024   -2.59715929395398
H           0.70492423056635    2.11948247717547   -3.67271044747487
H           0.50244101627964    3.03454652937963   -2.32774888486071
