    26
        -50.43922918  Gyration_radius:  2.66211009369 Dipole_moment: 2.151
 S          -1.05766132854170   -2.20347123216611    1.20533799166175
O          -1.16733680105104   -2.15694983220517   -0.21194124180949
O          -1.58656842232497   -1.09766437252063    1.94414088619578
O           0.38769396667753   -2.48225104483045    1.63668310405614
O          -1.78679047657422   -3.50566456460067    1.69899439690606
H          -1.92299197807522   -3.38266712459257    2.63541385830120
H           0.88068915771514   -1.62645624279981    1.93702173872504
O          -1.39645695537447    0.88204931517281   -2.15855499624058
H          -2.14732640019253    0.31845628096456   -2.35020997148330
O           1.52677362443949    0.84638746278824    0.03712651961561
H           1.48381173695334    1.68963374355484   -0.47171988126405
O           1.67983808585599   -0.42778131316397    2.29433493771368
H           1.63694258173664    0.15432835478822    1.49181796967927
H           2.60016193045999   -0.68780758076465    2.38243422750973
O          -1.19925455336584    1.18734057825461    0.48765918139185
H          -0.22565945356925    1.17415713275470    0.50022773375678
H          -1.42447292014479    1.04128743039820   -1.18417786646947
H          -1.47983603067331    0.45213109939042    1.05229412478701
O           0.67136527789502   -0.87246217838972   -1.78069538241131
H           1.34349258121044    0.14968644740912   -0.64067112922622
H           0.11808657812503   -1.51265889138113   -1.30886482169995
H           0.03060412883318   -0.23289948564128   -2.14820378684600
N           0.89901247647536    2.91303468959089   -1.58905683069922
H           0.17036823487680    2.39667606379567   -2.07222714094033
H           1.51558481525757    3.30694753875948   -2.28835306757352
H           0.44993013333005    3.67661772541471   -1.09881055362689
