    26
        -50.46110571  Gyration_radius:  2.50478399777 Dipole_moment: 1.927
 S           0.77029708873932   -0.86386839907397   -2.07929992741406
O           0.32102968890600    0.49896614105302   -1.80638802824403
O          -0.32403121254943   -1.81030266331567   -2.08490536219784
O           1.85332679303104   -1.26742982753981   -1.20158465100174
O           1.35505273802081   -0.82518098131254   -3.54855712656496
H           1.51971950305113   -1.74707166507625   -3.71643270494643
H           1.50849106910556   -1.25636233976020    0.34500450901112
O          -0.63380970935908    2.62878111391270    1.24690388365654
H          -0.66455842621639    3.55664317842026    1.01295260387098
O           1.26489499709506   -1.17424229561210    1.30571616386266
H           1.88205330988050   -1.73249768572604    1.78161827651794
O          -0.96011873292709    0.17011300251335    2.59885256190383
H          -0.13667042382989   -0.24562454498872    2.32028005052201
H          -0.81117041039662    1.11988757129615    2.56947860726918
O           1.56092795559085    1.51121908781937    0.35399472201911
H           1.68927648967780    0.69447768740696    0.85518373166409
H           1.27161591471491    1.21905184412815   -0.53148947998333
H           0.25763067250742    2.29567094731515    0.95237860590182
O          -1.34495762518441   -1.89048429663691    0.34905975507615
H          -1.01846340287028   -2.03385009360182   -0.56583593086778
H          -0.56455251018776   -1.87871744284011    0.91965061167959
H          -1.74024837128099   -0.35969925475542    0.22051224163193
N          -1.78389687137173    0.62213091234260   -0.21314117985256
H          -1.53452959681211    1.35312701191292    0.48702337688010
H          -2.70007530572223    0.79181320493142   -0.61334046829893
H          -1.03723361160504    0.62344977718588   -0.95763484209611
