    26
        -50.47039619  Gyration_radius:  2.41537123857 Dipole_moment: 4.733
 S          -0.94437274820775    1.54985929052644    0.91377348724515
O           0.29378154825521    1.38882799201973    1.65916614408369
O          -1.81517036113214    0.40221049026001    0.96634890920100
O          -0.66977782625313    1.99129400970376   -0.45631221844629
O          -1.73134024258704    2.73636619851976    1.60482840686501
H          -1.08064307175151    3.42939210133521    1.63057912254856
H           0.96744126124980    1.94162994931557   -0.67218344256686
O          -0.33110367850704   -1.78832562066226   -1.78724089126414
H          -0.48932912386013   -2.29025795693347   -2.58753668201644
O           1.91872141753331    1.75824192725856   -0.49464554096537
H           1.96205053521694    1.82012403739968    0.46838753511616
O          -1.00470026941758   -2.16535744905734    0.98352913355236
H          -1.44474610682382   -1.30063107873160    1.08227107602223
H          -0.85390164123665   -2.27169347320436    0.03469997357362
O           1.25757310500841   -1.09225953387934    1.83996349810049
H           0.92392176260466   -0.17680644638647    1.95375796480500
H           0.44563746908941   -1.64243664110245    1.73120938904421
H           1.75938443060400   -1.05261364737740    0.42495941653721
O          -2.06357948160427    0.14704494837876   -1.69692172406102
H          -0.99469854989444   -1.03604437558920   -1.79894237970690
H          -2.53191947776242   -0.03463397260037   -0.87117381445966
H          -1.54111934653277    0.94190147392711   -1.46431953551418
N           1.96424719122485   -0.87655923639243   -0.63412863826834
H           2.82792427852979   -1.31966299106086   -0.92563662323199
H           2.01981590872332    0.18059842370232   -0.72788619392712
H           1.15590301754224   -1.24020840929597   -1.17654638227870
