    26
        -50.47039533  Gyration_radius:  2.4153901291 Dipole_moment: 4.748
 S          -1.24045243829047    0.57480319023795   -1.50340255369488
O           0.03880210070272    1.20494527796760   -1.71415649776001
O          -1.91788302879276    1.00166759812666   -0.28974114353719
O          -1.17157473994964   -0.88769787532812   -1.56992765620116
O          -2.15943735211747    1.02171180678906   -2.71178724435342
H          -3.00021150287238    0.63959598877975   -2.48481518542240
H          -1.72203117716625   -1.47280155883128   -0.12683404305556
O          -2.03684064487912   -1.48912447742535    0.80631768230970
H          -2.49114476790550   -0.64021471804976    0.88352148939393
O           2.31210622109736   -0.98047071160469    0.43967787502883
H           3.10717079712988   -1.51274965805324    0.48498053495090
O           1.79685824029207    1.84129506246371    0.22388267075134
H           1.23249139119532    1.76427766813341   -0.56770220726339
H           2.19918611934240    0.97015522403207    0.34020831215550
O           1.40939418001248   -1.08777403604277   -1.99533182348538
H           0.45019848115803   -1.26034334188123   -1.90136150914519
H           1.42119013190427   -0.15784909725103   -2.25896469010551
H           1.97603294057445   -1.06760066854122   -0.50146774919898
O          -0.36035425157712    1.72246460319441    1.75232296677944
H           0.46975373085607    1.99992543336060    1.29668649641181
H          -1.01637924732328    1.61624614737763    1.03067941121191
H          -0.03744626398656    0.29174519006830    2.07360420479148
N           0.15546793264776   -0.78405235610885    2.09513825272903
H          -0.69505545631229   -1.22185360931121    1.63223284171967
H           0.27593451604778   -1.12218179482615    3.04297863220345
H           1.00422407819529   -0.96411929728767    1.52326095282811
