    26
        -50.47039604  Gyration_radius:  2.41535099952 Dipole_moment: 4.719
 S          -0.95064923561150   -1.73533620803091   -0.46099477875826
O          -1.18677079969877   -1.45390585613761    0.93284580361743
O           0.44351035638436   -1.98943355026041   -0.78742541451697
O          -1.51156864604740   -0.71293186072232   -1.34821952129159
O          -1.73447151664692   -3.07199216117674   -0.78350946467714
H          -1.44556921788322   -3.27244061655620   -1.66710587479257
H          -0.26936292188363   -0.10766424203509   -2.25236317848345
O          -0.37832650683806    2.27558530256818    1.08721434327641
H          -0.67027308887847    3.15127291089541    1.34299989848260
O           0.64785750984694    0.06176903674013   -2.56902446070318
H           1.09063980124081   -0.77281179431550   -2.36787881484262
O           0.46496634019693   -0.05939822323091    2.53793182166600
H          -0.17961052732658   -0.65816688398599    2.11713633278436
H           0.20279095782500    0.83166832511351    2.27033385635714
O           2.25854546206959   -0.73596303481432    0.71383154423917
H           2.01439504125445    0.56765930016664    0.00909211448109
H           1.76724062726244   -0.58372064694471    1.55601664559103
H           1.68740456489228   -1.34555913379449    0.19957442081412
O          -2.48264124616167    0.86350456265527    0.51013109866617
H          -2.26180533173038    0.41838501131516   -0.33373279137437
H          -2.42369966989946    0.13586698770171    1.14344277467265
H          -1.20923978877631    1.76880213073856    0.84413498198724
N           1.63727810408804    1.43238959371041   -0.54290074620228
H           0.88245303268249    1.86484739511874    0.02551567491414
H           1.23269612140909    1.02743575964078   -1.43838138421728
H           2.37421055819785    2.10013790562867   -0.73866488169481
