    26
        -50.45462913  Gyration_radius:  2.52337347329 Dipole_moment: 3.164
 S           2.46136788236899   -0.44455415496293   -0.55271719563398
O           1.95582317367470    0.87083628367224   -0.88087022909646
O           1.64524940557715   -1.50708283989423   -1.14067486356786
O           2.65972351232804   -0.65972655359139    0.86759736030738
O           3.88478171920985   -0.56245119103510   -1.22782290277248
H           4.17418780479860   -1.40069000953258   -0.88484570367782
H           1.25577786069149   -0.88079099201963    1.57561793597283
O          -0.48086006062080    1.41885586112843   -1.79661873805340
H           0.49511360647870    1.38345016688554   -1.80350973181051
O           0.36693532808998   -0.93112636435679    2.01803340375424
H           0.51637189501364   -1.37112700333496    2.85625114175925
O          -1.81166820172758   -1.36449353341691    0.46762586066863
H          -2.29178790600675   -0.49817972462586    0.58233941639229
H          -1.04293699067458   -1.32322543282037    1.07106736416178
O           0.04675271938743    1.61006151942344    0.92895498596442
H           0.06674850339574    0.84739011270083    1.52541592261903
H           0.87848738284684    1.54207245435416    0.42938572123040
H          -0.67374603669570    1.67900497910677   -0.88055912616750
O          -0.73995417688886   -1.10896345615439   -1.76004826031101
H          -0.74068629598950   -0.08560075842084   -1.87953983909358
H           0.25159530976013   -1.34186017497578   -1.56985493029215
H          -1.25164375577373   -1.29734418479266   -0.83066020043101
N          -2.85334304979594    1.09202148544121    0.69358777179495
H          -3.54450865546063    1.24563263752651    1.41614272529179
H          -3.21300178229021    1.47974997174304   -0.16965336664026
H          -2.01477918170335    1.60814090195488    0.94535548763113
