    26
        -50.45462895  Gyration_radius:  2.52334744589 Dipole_moment: 3.146
 S          -1.59404607246423   -1.38507892511967   -1.45188680850321
O          -1.17610592911740   -0.20263289416793   -2.20598163086479
O          -2.06440591466316   -1.04409511352740   -0.12695159042339
O          -0.56457764647819   -2.40631170032104   -1.46452027628607
O          -2.83152308551628   -1.98320335148353   -2.23065828339956
H          -2.41799252302921   -2.24248394836247   -3.04661369131119
H           0.81739240069379   -1.78194405445366   -0.99568291549713
O          -1.60510716162814    1.24707059414677    1.15169223666880
H          -2.14653587179865    0.54419352088724    0.74500032264722
O           1.65359762774379   -1.39961981728511   -0.61731392234680
H           2.36159174421283   -1.97315685813218   -0.91467085105562
O           1.86730313861938    1.29588089881008   -0.45302997657218
H           1.87805829843768    0.32941957312234   -0.60272392493256
H           1.88438728777627    1.41602608196241    0.53664931529324
O          -0.47625726875675    1.88668010719744   -1.03362815334983
H           0.56761129220261    1.70342224320387   -0.84181168127771
H          -0.79176543038610    1.07303516057009   -1.59294933561648
H          -0.95307076628535    1.77183297686389   -0.12736758703868
O           0.04622459907787   -0.93665158059864    1.60490772131291
H          -0.75494136380659   -1.22174379816589    1.13278445100086
H           0.77077819998245   -1.18911034360891    1.01379513073369
H          -0.91799258592665    0.73845780285607    1.61480069912695
N           1.66410990068861    1.46624780352257    2.21185903692720
H           1.06457556448764    2.21452835971910    2.53688819430556
H           2.51964233431360    1.49535462519057    2.75096757164103
H           1.19904924162213    0.58388265718474    2.40644594882248
