    26
        -50.45462925  Gyration_radius:  2.5231076238 Dipole_moment: 3.153
 S          -2.51822012034988   -0.04018769461203    0.46807114891261
O          -1.94862097413556   -1.24933340862470   -0.08574507646292
O          -2.20688814757954    1.13493277677628   -0.34651254255240
O          -2.18202570174639    0.18280609455994    1.86099686270897
O          -4.08751146256622   -0.21076653365172    0.40562228897294
H          -4.36926638025389    0.57659194171984    0.85804242798055
H          -0.68120519749554    0.68736450895308    1.97442834190858
O           0.28392409924648    0.91756967485449    2.03736649364663
H           0.39588874918127    1.34715451773883    2.88684648714897
O           0.00114272886150   -1.36985043783030   -1.89490843561144
H          -0.89145039410352   -1.52039496938095   -1.52931877309465
O           1.56558012018458    1.69455931063597   -0.21925657938211
H           2.20282322342001    0.93645244578291   -0.33582184948210
H           1.11518069930947    1.53316267729971    0.63381376741547
O          -0.22285384661776    1.16175228905104   -1.86075657635123
H          -0.07820409604464    0.15286545192649   -2.01112408638835
H          -1.08653486500086    1.21326997109740   -1.29019220658789
H           0.56586070280253    1.47690451288867   -1.19787078643421
O           0.61460717396961   -1.55656193203205    0.80848821581406
H           0.68908198546202   -0.78867944739851    1.39398395659018
H          -0.34333674050450   -1.66205369078599    0.67684657956062
H           0.57310715551843   -1.55313188836221   -1.13067075162946
N           3.04481157184254   -0.51735977005151   -0.51869873043388
H           3.09664946574874   -0.86149914001306   -1.46936167211331
H           2.48595216533460   -1.17137205784122    0.02236617150743
H           3.98150808551857   -0.51419522273912   -0.13663467562258
