    26
        -50.45462900  Gyration_radius:  2.52304879943 Dipole_moment: 3.153
 S           1.18143583763722    2.27282555860137    0.02788416957557
O          -0.02016140968168    2.35248355260974    0.85929850995897
O           0.90188486930243    1.71244351836114   -1.27627852963747
O           2.26317166983901    1.61134219878582    0.73154871844873
O           1.64487264620920    3.76402658764857   -0.21155951717149
H           1.87093368332337    4.02394575935836    0.67464065450080
H           1.75721029133502    0.21930866244651    1.30189965922984
O           1.45326300436774   -0.68681446719808    1.57607313711943
H           2.04759300068635   -0.96154652027901    2.27602851604840
O          -1.26539348551819    0.31664634224359   -1.93901111924883
H          -0.62236763139249    1.04989989493340   -1.98607529068252
O          -1.20582040157444   -1.20421208461964    1.57132680632161
H          -1.25581997293426   -1.88507759824655    0.84445094424050
H          -0.25320862667854   -1.02291288824709    1.69896431382087
O          -1.98091903305160    0.86665741971498    0.43655967096560
H          -1.83540984847211    0.63078928463932   -0.55586987209794
H          -1.71996036818266   -0.01949455950884    0.99087762509576
H          -1.22767894456960    1.54562450435108    0.64967872445416
O           1.04460394282557   -1.01405888548630   -1.15622179403868
H           1.24508952505647   -0.07988194131842   -1.33809546300594
H           1.30215091399558   -1.13476131736104   -0.23037557389773
H          -0.68976053743838   -0.45823789659020   -1.82524093770514
N          -1.20114050374485   -2.83972743435603   -0.54884532658529
H          -1.13271256686334   -3.83421404504331   -0.37647395931697
H          -0.33992382106797   -2.53771494885469   -0.99603504726748
H          -1.96193222325396   -2.68733873680309   -1.19914901911112
