    26
        -50.45611344  Gyration_radius:  2.53555404191 Dipole_moment: 6.285
 S           1.64966032844539   -0.61028151253900   -1.31776141939202
O           0.72214883544786    0.25193709235436   -2.03056588639788
O           1.11598267625793   -1.95824119489077   -1.14782862500429
O           2.12400095216633   -0.05153467713526   -0.06855110413548
O           2.91617797510142   -0.73673565750388   -2.26348310205950
H           3.60410707687692   -1.12025030008917   -1.72603625814500
H           1.07766111261028   -0.73956624263360    1.03085718628511
O           0.41814425215220   -1.22819796460679    1.56912179954093
H           0.63906424920473   -2.15452359075971    1.45543028612629
O          -1.59755539796796    2.01759294955599    0.85350793813864
H          -2.00408715196196    2.87442283889837    0.98492686736038
O          -0.22481191562597    1.09534296854055    3.21497096165675
H          -0.74926308864733    1.46219415115555    2.49126659490796
H           0.11602076882974    0.25515691413179    2.89251947918502
O           0.72699165654720    2.33429933380812   -0.35291270245361
H          -0.73733177377527    2.18288083356484    0.38786962732280
H           1.39789287588772    1.96371591800380    0.23188984241566
H           0.70989214879663    1.71846162743350   -1.10772429488772
O          -2.08727645477547   -0.63032130033290    0.76543801810019
H          -1.76759357424247   -1.02053678448193   -0.63876196338019
H          -1.26246311875675   -0.89468113601208    1.22661886351398
H          -2.09677632887254    0.34393883596695    0.82618175683967
N          -1.33364406536030   -1.29049397154565   -1.60685552022860
H          -0.46524694246535   -1.86201215169996   -1.41495944471326
H          -0.90165710411426   -0.44854842179590   -2.02986729682527
H          -1.99003800175519   -1.75401856739054   -2.22529159377126
