    26
        -50.43242841  Gyration_radius:  2.56271214885 Dipole_moment: 4.455
 S           0.85691755811569    1.47556427226028   -1.82442034035353
O           0.58945845806333    2.06297453104769   -0.55174233858444
O          -0.33457453743522    0.71338145940161   -2.37739668999899
O           2.03008344030150    0.64336862298887   -1.87173133088586
O           1.01714762863212    2.62393899797692   -2.86650217004545
H           1.17297390479401    2.21502667360309   -3.71480407058735
H           2.01699176700075   -0.48532255080519   -0.64633853111908
O           1.80821346857961   -1.14750998214900    0.04860453070033
H           2.43801818896086   -1.86327023544171   -0.06264189216584
O          -1.70112325841984   -0.06426405280813    1.63561114307501
H          -2.24451976463224    0.07355507487628    2.41229923277860
O          -2.20441709305541    1.98257893946311   -0.30188875843006
H          -2.22789523881955    1.30751586843498    0.38887438826871
H          -1.28086161904125    2.24161370429024   -0.38658504198348
O           0.79531607029604    0.77118338905505    1.86356041909969
H          -0.79442297093286    0.27180875263123    1.85428093926930
H           1.32568624829120    0.04629579593586    1.50732303541605
H           0.78944589018467    1.44816873567110    1.16994650548409
O          -0.80993437221580   -1.09218601893105   -0.73193574191282
H          -0.63350967799664   -0.05187933549140   -1.71817684146193
H           0.08077180251231   -1.27408641679949   -0.37055062601316
H          -1.34364827657879   -0.76114245543035    0.01404633706948
N          -0.32804707501141   -2.96250390952806    1.84399995640405
H          -1.01679503007526   -2.23512115415564    1.99463772883290
H          -0.56872104709837   -3.43054075829067    0.97900376568332
H           0.56744552558361   -2.50914794779056    1.71252637143848
