    26
        -50.44962130  Gyration_radius:  2.5226677726 Dipole_moment: 3.579
 S          -0.21780046136074   -1.07784211952487   -0.79368122256861
O          -1.66617304018218   -1.08750911756837   -0.86417881579302
O           0.27374458267901   -1.03220041371544    0.57395214960348
O           0.35445584934973    0.02473531563976   -1.57713625572376
O           0.32947910470525   -2.40731832478417   -1.40890316274447
H          -0.04376230689454   -2.39297660589043   -2.32170575937405
H           0.46621638431825    1.27851213358254   -0.75977899963636
O           0.52059378391990    2.13636671053435   -0.21491060435160
H           1.06619629323263    2.73274156120893   -0.73127036054098
O          -0.75766632584709    0.70002419604977    3.05744140184985
H          -1.23953306594893    1.33065639996770    3.59683558464636
O           2.58737616243085   -0.66375581998425    1.51011187451716
H           2.66272833419077   -1.28740859884900    2.23555612602207
H           1.74952606328648   -0.92491481611501    1.01938081108047
O           1.41821575233054    1.48646866840188    2.07800087404527
H           1.09330785321743    1.78352898140544    1.14718142766953
H           0.54640597416241    1.14636210847002    2.55246450489363
H           1.99130346111842    0.62808525002145    1.89980527556691
O          -1.96982301497894    0.96514826440391    0.77127795668998
H          -1.26465561846300    0.62897869049871    2.19641428896240
H          -1.39011959187741    1.58321933851570    0.31245887855077
H          -1.98260670112102    0.15580835093334    0.21533913279840
N          -0.97800882267917   -1.63898136384220   -3.55281354498742
H          -0.44078198985377   -0.78004366191613   -3.59102620586707
H          -1.72687137589541   -1.47481979684170   -2.88565878594306
H          -1.38174729382957   -1.81286532059030   -4.46515657936823
