    26
        -50.45614805  Gyration_radius:  2.45151323088 Dipole_moment: 3.885
 S          -0.14599898518020    0.08417881930680    1.86312066590989
O           0.29011079523236    0.90640083089432    2.95364042477771
O           0.78666359907339   -0.09057410625808    0.77629267455647
O          -1.48596586071432    0.41715605973510    1.36019584368175
O          -0.31034646220561   -1.40453005992650    2.48128155050495
H          -0.57213667007848   -1.23799768747294    3.38235494065575
H          -1.69831339344435   -0.19457637847750    0.01154422595427
O          -1.72369837459429   -0.70185942558037   -0.87849140614223
H          -1.20015695325622   -1.60429467907017   -0.66043091260063
O           0.72132885641318    2.68392393913351   -1.34278353564772
H           0.40608806297530    3.50138758720419   -1.73176141279883
O           1.95442667627594   -1.09228119058970   -1.35321812556577
H           1.60035951604120   -0.72469649944094   -0.51524240645528
H           2.81081405782001   -0.67908197433233   -1.47534410905635
O          -0.30261363945222    2.82686823733215    1.13379866833909
H          -1.04483833808704    2.20617935953246    1.11487087753067
H           0.21295232260523    2.53402535825415    1.89683467441716
H           0.44313006458660    2.71038683792500   -0.40092505877698
O          -0.06721568166242    0.37930959936541   -2.40290684448083
H          -1.08379778325344   -0.18704578727097   -1.55496964219532
H           0.19870224838855    1.26015152469697   -2.04557746206433
H           0.69834467874705   -0.20344623380075   -2.22096041792453
N          -0.30826735452516   -2.69730224525236   -0.20323235179729
H           0.55720911353504   -2.61542851375546   -0.72689572886425
H          -0.61625171710734   -3.66050277966737   -0.21599339345647
H          -0.12052879811014   -2.41635059246543    0.75479826153114
