    26
        -50.43955922  Gyration_radius:  2.49318954031 Dipole_moment: 5.233
 S          -0.57280650692960    1.94236184344832   -0.22319986025854
O          -1.80959160474791    1.78056324187546    0.56277072714334
O          -0.50389826445649    1.01955551088772   -1.31665831779134
O           0.58110000543048    1.90712778725056    0.66916155028014
O          -0.62885845229335    3.39660909822773   -0.81502131114289
H          -0.54363890080915    3.93698957370318   -0.03636477917736
H           0.83038452359210    0.56152997019227    1.38596429184267
O           0.84649184968809   -0.30908002270211    1.88873168748013
H           1.33278968675266   -0.13244932970878    2.69681897959741
O          -2.32368319657287   -2.02215208075179   -0.00955661289446
H          -3.12588803974041   -1.77210713414537   -0.47208328123061
O           1.77499015276162   -1.98842408503201   -0.11809393112524
H           2.01953348280965   -2.83853620863090    0.25001493083700
H           1.52323602813106   -1.41203777607819    0.62323663573076
O          -0.43645969523398   -1.62756401909188   -1.68337522431523
H          -0.45289503688070   -0.65353842011805   -1.73163051433224
H           0.42001047546620   -1.84566680425160   -1.27194189583674
H          -1.57182186862850   -1.94414932102645   -0.69303665313008
O          -1.75021166303624   -0.36076749745725    1.76239687983778
H          -1.84634533810224    0.59652466236026    1.27053067118618
H          -2.02756769247512   -1.09486117405582    1.04086630622235
H          -0.76545348563078   -0.46460681706366    1.92267825279601
N           2.52742875538846    0.93344767760094   -1.45251524642997
H           1.97790077561289    1.04819813766010   -2.29629593759976
H           2.00814957630571    1.40057266235753   -0.71720957021469
H           2.51710444357170   -0.05753943543609   -1.23618778746167
