    26
        -50.45614809  Gyration_radius:  2.45146889488 Dipole_moment: 3.885
 S          -1.19336295544544   -0.71887775867960   -1.24862279474229
O          -2.59087439908467   -0.68037450267701   -1.56642205808049
O          -0.85191919698437   -0.69273909499103    0.15297290669462
O          -0.37923434925385    0.24015991030294   -2.00800995986649
O          -0.67404233336572   -2.16900340630776   -1.75147724458902
H          -1.22700245822114   -2.34736885164024   -2.50687127665904
H           0.95592922029617    0.41515927914012   -1.35521798504423
O           1.83780643201451    0.40546359259797   -0.83362700008564
H           1.94196736082832   -0.61628538808236   -0.54832889466509
O          -0.99989041531489    2.57151931044182    1.38211377219843
H          -1.04835891975374    3.52880605644102    1.36698394789991
O           0.51980056063509   -0.96038711664574    2.37783929234152
H          -0.06412200168679   -0.85625301231855    3.13111781366085
H          -0.05824462348484   -0.91340115431837    1.58642672948812
O           1.39198333705304    1.41622872761222    1.40599132086248
H           1.66830242440766    0.91535798619024    0.08486475829111
H           0.52678889934115    1.89135784461836    1.39739247439178
H           1.21718380046663    0.59201378937214    1.90490726229726
O          -2.18647023933227    1.92617899895279   -0.93657124998520
H          -1.45074743754692    1.67413153150816   -1.51257680621922
H          -2.78082113122650    1.16614033541175   -0.98933557704706
H          -1.49118764917789    2.26549221006265    0.58825651008063
N           1.81189998791518   -2.02837817358754   -0.11475629282139
H           0.93186063933147   -2.29177978731154   -0.54839759963418
H           1.67358033074118   -2.02100804056152    0.89061876659530
H           2.51917511687601   -2.71215332548921   -0.34927082522809
