    26
        -50.43251203  Gyration_radius:  2.56571402192 Dipole_moment: 3.998
 S          -2.07041647615400   -0.02973155572780    1.38492452886050
O          -0.96608015258782    0.36232891355373    2.35006770790660
O          -1.71607032545301   -1.14316399250545    0.56566264644802
O          -2.51675229090133    1.13186942333452    0.66155150319811
O          -3.20184812394753   -0.48165383705705    2.35678930399238
H          -3.38824698043146    0.25682815639343    2.93190929355741
H          -1.43182072693319    1.55552704523484   -0.52285743812239
O          -0.65631390134871    1.74637559765482   -1.09597385830084
H          -0.79749232105463    2.62696459016986   -1.45128299139555
O           1.96436893823704   -1.17411961138188   -0.19042181762703
H           2.63896644937145   -1.77784615419187   -0.50334509657865
O           0.42107876632894   -2.36205468259732    1.91832928665772
H          -0.42253693854295   -2.14011768546179    1.51062300954703
H           1.09884936239670   -2.03265710867936    1.31417944561902
O           0.98609733679116    1.05488470088498    0.97419159429919
H           0.55634059957142    1.39943251901664    0.16675104897750
H          -0.08394694317832    0.64556345538154    1.84120876177284
H           1.48939534213098    0.26289462502305    0.70270939531024
O          -0.19707272488619   -0.99407252722979   -1.71165195136726
H           1.21856926337809   -1.20440057436658   -0.84162954969710
H          -0.84319687893795   -1.28238792708924   -1.04938349524521
H          -0.34906348356155   -0.04489518820893   -1.81543049263123
N           2.23957430061001    1.07103518570962   -2.51644584494948
H           1.40490991552325    1.56628374998390   -2.22955635147136
H           2.68058238587896    0.70931761359320   -1.67948620403331
H           1.94212561766892    0.27779525850423   -3.07143243465391
