    26
        -50.43251197  Gyration_radius:  2.56560415671 Dipole_moment: 4.007
 S           0.63912255742982   -2.19215755247106    0.99464161182330
O           0.69583738337899   -0.99071304478268    1.76262487801931
O           1.43979334315415   -2.10330459847156   -0.29211526756196
O          -0.69117176471801   -2.65989486029239    0.70618236390992
O           1.40452820070742   -3.30377647857913    1.77392228864355
H           1.40212049976646   -4.08370464811224    1.22391218415874
H          -1.62048413514314   -1.45513669859066    0.03980372123254
O           0.96250188512435    2.03568401165736   -0.44756318663504
H           1.20972362755625    2.95938331844853   -0.39097098096620
O          -2.00454347504370   -0.68787897758462   -0.43994658505635
H          -2.81519334536743   -1.00502791428292   -0.84478329419759
O           2.94897690566713    0.36731290124537    0.78090695010552
H           2.44025809025252    1.01688598348369    0.27883038220541
H           2.30575046340709   -0.11630037524457    1.30953527632031
O           0.40626742227391   -0.30660967487717   -1.66601380958206
H          -0.52762092304783   -0.34043950919951   -1.37953739896539
H           0.75218367480308    0.56056973536768   -1.37853792764344
H           1.07894168843169   -1.33804128687645   -0.92560294952091
O          -0.84607098490972    1.23095470923828    1.31317531540206
H           0.29024413251138    1.86805341764455    0.26033196409813
H          -1.49718610221754    0.74006216082037    0.79365093795825
H          -0.30712090303448    0.55314706041477    1.74825912271095
N          -2.08270245663002    2.43595013521221   -1.49109929048752
H          -2.14365651718329    2.88329710995034   -0.58454811234883
H          -1.11335507989687    2.46931822778569   -1.78288627768336
H          -2.32714419733129    1.46236682796887   -1.36217191599631
