    26
        -50.44582467  Gyration_radius:  2.68621370223 Dipole_moment: 3.269
 S           1.82964155132574   -1.58609966745571    0.80008870103767
O           0.64915943526750   -1.49283160688029    1.62989559414719
O           2.82359819402786   -0.55835360044819    1.15295637687147
O           1.54631348404888   -1.58141736632702   -0.61977374980799
O           2.51547498864251   -2.96774885271075    1.13330385555431
H           3.23643318398123   -2.99704486345147    0.51203356767435
H           0.82498613700397   -0.12573553210851   -0.87621083280719
O           0.38905044147787    0.75439448582359   -0.80545267528666
H          -0.09314315454361    0.90194466976038   -1.67445995465292
O           0.01280811700305    0.79593991011786    2.79696533959684
H           0.31587488510448   -0.12887259206348    2.66609163988685
O          -3.37224232263924   -0.06986352751166   -1.35092811985437
H          -2.83302804240831   -0.16045381843244   -0.54235521710464
H          -4.24079894235053    0.21234417991282   -1.06177127714316
O           1.71937965836811    1.63915684010165    1.15559389237953
H           1.20948608144821    1.51474949893571    0.28739974675135
H           1.01678566854524    1.44807691707903    1.91426634473710
H           2.31910968110332    0.74907660992811    1.18291778583617
O          -1.61425848177554   -0.07668157025115    0.77187377586637
H          -0.84121412158025    0.81425001201406    2.32965715455004
H          -0.96185787023385    0.32225925254624    0.15423408077394
H          -1.19319398724701   -0.90300696873516    1.04571727228017
N          -1.12004165116468    0.90926029272903   -2.96226327626957
H          -1.31406357996551    1.78123231945659   -3.43751686463894
H          -1.98976881468886    0.57606249972287   -2.54664037539711
H          -0.83449052876088    0.22936246815179   -3.65562278502262
