    26
        -50.44582469  Gyration_radius:  2.68622122098 Dipole_moment: 3.269
 S          -1.99597848070485    1.39039897718650    0.76700540784310
O          -1.24067084608158    1.90847844734870   -0.35184681787758
O          -1.43048375980652    1.83027764092010    2.05371702220670
O          -2.17725426228993   -0.04563995551275    0.73314558950106
O          -3.43077909243759    2.04312036406397    0.69199369813704
H          -3.89230025526165    1.61378916317939    1.40564308403871
H          -0.64533585077568   -0.64083260925747    0.79885674856054
O           0.32909667693982   -0.78266713005698    0.80478680471243
H           0.47591465787324   -1.75056258277850    0.57834750485589
O           1.29546800176480    2.60238075894563   -0.04701171823203
H           0.32452960728130    2.66181902328100   -0.18090578759507
O           1.06451703479728   -2.06845189811630   -2.79132524323236
H           1.74250376203852   -2.02413126470917   -3.46652388822325
H           0.93053469060192   -1.15298606556657   -2.48028746973582
O           0.97175351050293    1.30450891378684    2.08106769370403
H           0.89000701232285    0.36508189227434    1.70688450253815
H           1.26032342916023    1.89935042374158    1.26342173915788
H          -0.05925964761454    1.58002276339828    2.19960827940104
O           0.77406495486244    0.38383676207511   -1.56831083308505
H          -0.07285734097052    0.84820421133702   -1.61508846474036
H           1.56903369161164    1.95249279361514   -0.71851921629735
H           0.71996243469460   -0.11259413207429   -0.72155934363975
N           0.63893611035601   -3.22955508504310   -0.12718855063854
H          -0.22836617579241   -3.74926381525352   -0.08009851947776
H           1.38884610290056   -3.84093257408097    0.16900166371648
H           0.79779402404373   -2.98614504281681   -1.10481386557628
