    26
        -50.44582475  Gyration_radius:  2.68625457584 Dipole_moment: 3.270
 S           1.57632002671559    1.58425561514969   -1.22925735899275
O           2.07021054562119    0.61744658881565   -2.22429706696568
O           1.95847077728711    1.20875232072587    0.11374804975139
O           0.15723324680735    1.82511118826459   -1.38587895569884
O           2.31708378019506    2.93916820677318   -1.55427277087579
H           1.97178059338642    3.16376392979893   -2.41272640200576
H          -0.53503627300826    0.37931540152770   -1.01730075602883
O           2.49774975244382   -1.31694393300425    0.69323405601797
H           2.61367822264509   -0.35789446200225    0.51716079858677
O          -0.74215347013596   -0.53860688751314   -0.72715646891804
H          -1.73179696438426   -0.56487581296217   -0.55569682016443
O          -2.33588568799332   -0.02385983591358    2.78279952211690
H          -1.39304011635715   -0.03500044112080    2.53028229041547
H          -2.38714955998060   -0.44750873656268    3.64040443298075
O           1.38509346975359   -1.64231002872222   -1.53677278301533
H           0.42840520559798   -1.40622921686117   -1.29568964479096
H           1.73817270981466   -0.71664552906645   -1.95034954639844
H           1.89713465191585   -1.67640758136265   -0.61873612940563
O           0.21413939663963   -0.24334347642657    1.76059574854100
H          -0.21411065070303   -0.44435939445015    0.89889427224979
H           1.78302055034637   -1.33286120426222    1.35434826136226
H           0.73042827350144    0.55375732762888    1.57827360724859
N          -3.26673242582374   -0.43140279973074    0.02673619276896
H          -3.72180038497217    0.39514738598030   -0.33974905831326
H          -3.10706499439575   -0.27727965159186    1.02224324325721
H          -3.90415067489442   -1.21118896305717   -0.07083669373066
