    26
        -50.45524961  Gyration_radius:  2.46715722603 Dipole_moment: 4.684
 S          -0.68813576119161   -1.45599866750347   -1.11119739862849
O          -2.04970607935885   -1.87728703210599   -0.93822853732702
O           0.13985632937730   -1.63720032319122    0.07194725457003
O          -0.52835269135761   -0.11620185098693   -1.66823902594323
O          -0.06019826427772   -2.40951661619215   -2.23052642746965
H          -0.53544651119288   -3.22129734029735   -2.08641583459083
H          -0.96519457800756    1.14666635774312   -0.77056515271703
O          -0.50328389539290   -0.04238347942069    3.16265364858818
H          -1.02779252181124    0.17414280898511    3.93450829129933
O          -1.22282547263715    1.87662173244580   -0.15575533876941
H          -1.61593449888697    2.56390554815233   -0.69522304742200
O           2.10379696984153   -0.15024137134462    0.49516959098378
H           2.26099830562676    0.13969723333652   -0.50260699034752
H           1.34227295737494   -0.83865966774458    0.40891596885141
O           0.82299679524189    1.65869879300405    1.64742377797688
H           1.64423205441867    0.65847688780435    1.00751296542451
H           0.10640678336321    1.87699755662436    1.02312061350079
H           0.39262852287509    1.09579846813373    2.33893168143547
O          -2.34001934723315   -0.30507021744765    1.24229430255532
H          -2.31686682975187   -0.97078087942992    0.53515669028582
H          -1.14510589694837   -0.31614664347663    2.46774655645156
H          -2.17689740664822    0.54766488917093    0.81573736519241
N           2.16975948034839    0.38479961448431   -1.99240552241342
H           2.37981074383655    1.30413003738865   -2.35864174989002
H           1.16165185967485    0.21548496410137   -2.08388683458165
H           2.65134895262748   -0.30230078225857   -2.55742683692163
