    26
        -50.45524971  Gyration_radius:  2.46704962882 Dipole_moment: 4.684
 S           1.64776909104929   -1.00697908585201   -0.31540879321149
O           2.04777138785105   -1.28101741798793   -1.66671686095127
O           0.37108108853874   -1.60073778491360    0.05326638098941
O           1.70629345480891    0.40061654030142    0.06666420832933
O           2.73736165546782   -1.70117610499635    0.62660261683158
H           2.99566315275351   -2.45500975477394    0.10633257924320
H           0.66360724197191    1.42596303645933   -0.60658664803547
O          -2.68017522896224   -0.81421187708314   -1.55332772602261
H          -3.27246838198964   -0.74278653302930   -2.30289443025090
O          -0.02387691242234    1.99361431087057   -1.03352549703635
H           0.38465114294916    2.84501737553234   -1.19511411155017
O          -1.06978129491396   -0.54739330896009    1.80266953781470
H          -0.54839779414592   -1.08344342945263    1.09385286651383
H          -0.30468998673122   -0.02603184891531    2.29955139912926
O          -0.28782360047700   -0.31832965728382   -2.63075962685502
H          -1.76917366640137   -0.80855367119240   -1.92735577128179
H          -0.20517668614330    0.58856924044024   -2.30463736270195
H           0.53782731252964   -0.76989876902033   -2.38970274190715
O          -2.23448930470005    1.04055065007959    0.26580738161471
H          -2.55601658178420    0.37497987815940   -0.39297400125576
H          -1.62388021758030    0.14864492059878    1.22271719025074
H          -1.50839127505453    1.50799657311169   -0.18720388956826
N           0.99690986487456    0.61450693664917    2.72893328927399
H           0.99180845978791    1.56252298813436    3.08199532867488
H           1.44812806390630    0.60798696157891    1.80717613560027
H           1.55546902463877    0.04459982146094    3.35063855643422
