    26
        -50.45129015  Gyration_radius:  2.61603895352 Dipole_moment: 4.152
 S           0.65684829021542    0.23856248571593   -1.27007072812914
O           1.38515889391388    0.66462284110040   -0.11229268073836
O          -0.67618968804194    0.74892804996259   -1.42412228487049
O           0.57151105212549   -1.30546242267753   -1.27262047179019
O           1.47502018487125    0.56529534285406   -2.52933820306664
H           0.83170957869688    0.38863138105710   -3.31419411378177
H           1.16133519133376   -1.66937406009054   -0.51682302721233
O          -1.62466026719190    2.09213371549954    2.45189875916595
H          -1.95035690938377    2.16050359606117    3.35036875340481
O          -0.11666577728813   -1.44977452667302    2.32724386911829
H          -0.58990224010855   -2.16588633045729    2.75283767738404
O           1.97793993980109   -1.88238842937960    0.74459584488580
H           2.39047585476897   -1.01040039931461    0.76971658409410
H           1.25217365000796   -1.84165403549753    1.41168254520785
O           0.89846495204833    1.17944419068164    2.55814270582877
H           0.66920376647125    0.25648951085650    2.73666106643325
H           1.15617403504845    1.19878807007910    1.62431846877284
H          -0.65783905674722    1.92074885765729    2.52071614295497
O          -1.83814972621331   -0.11644394335702    0.89600128225240
H          -0.78575284364873   -0.98311205372582    1.74569892919690
H          -1.92871333335131    0.70864742391921    1.41844138677420
H          -1.52377398325902    0.17441555731359    0.02603454559352
N          -0.43993376463172    0.07525307318262   -4.15318653860063
H          -0.66203808273310    0.64104442844391   -4.96150137589411
H          -1.07007273738995    0.31153347300754   -3.39134097917445
H          -0.56196699930712   -0.90054580622483   -4.38886818779850
