    26
        -50.46725474  Gyration_radius:  2.5160798849 Dipole_moment: 2.186
 S          -0.00898666356797    2.10776305672053   -0.51430923876466
O          -0.60422187564264    2.81390739691413    0.58601010103407
O          -0.79763269531156    0.95172011470959   -0.94741907012244
O           1.38194403257724    1.74037043461202   -0.30286831254755
O          -0.02931993260642    3.11142262598259   -1.74860343673314
H          -0.10361108885836    3.95429083519498   -1.31281735997204
H           2.09259407040770    0.53778714167688   -1.18505250779910
O           0.76806826863765    0.04324054845761    1.70792910005346
H           1.08299266234760    0.74863969443948    1.11812699376500
O           2.56097383178848   -0.21788295713183   -1.60774777048188
H           3.46329219192236    0.07817867583196   -1.73566519137733
O          -2.28938401160248   -2.08563910483103    1.13174688509048
H          -1.81117667046721   -2.44541341021435    1.88210872009410
H          -2.39894472453134   -1.13506614287452    1.31471254070237
O          -1.96779973010553    0.59189249370692    1.39105065687446
H          -0.18527143418828    0.19023651737916    1.80406987431221
H          -2.02069815601196    1.46975526399878    1.78071380243576
H          -1.66857323613475    0.76432312340989    0.47342161259402
O           1.71260519292409   -1.98021623955366    0.21750377679578
H           0.37897184898586   -1.93441615387668   -0.50432459232445
H           2.22306596023243   -1.45306803586761   -0.43367605960562
H           1.50014070444674   -1.34786130392616    0.93772602769171
N          -0.59165225069985   -1.70369015461316   -0.93365112843529
H          -1.32794189507250   -1.96508125959350   -0.23657475692701
H          -0.73176564963203   -2.17104568016489   -1.82187892710661
H          -0.62766874987114   -0.66414747037524   -1.06053171919907
