    26
        -50.46725506  Gyration_radius:  2.51595585433 Dipole_moment: 2.196
 S           1.34129791735203    1.37762536821129    1.00567825518226
O           2.65081218807314    1.18951809211034    0.44566847930470
O           0.69720522654759    0.11983826167518    1.39208079495972
O           0.45409075366016    2.18737039233781    0.18603414959057
O           1.55101073837181    2.17344199713937    2.36732307552731
H           2.40684195302439    2.56788509132462    2.23326650581205
H          -1.18431206360894    2.12479980019025    0.38711790948791
O           0.38539835979629    0.35747197259057   -1.79998857310953
H           0.48987621945543    1.12704639262106   -1.21547258301978
O          -2.16783111490255    2.08193132568972    0.38812989342010
H          -2.46431055213872    2.97976051933162    0.23241040315560
O           0.11771389039406   -3.22610529623284   -0.66860345170046
H          -0.06516450459130   -3.19411228731896   -1.61032859387569
H           0.95746084554492   -2.74852675086216   -0.54245256124876
O           2.04947717755376   -1.35760854992651   -0.32671197855756
H           2.89752057255898   -0.91397384246028   -0.42335780072393
H           1.62339039709112   -0.88127560640104    0.41689110502894
H           1.02239180501619   -0.30008916625410   -1.48115318660968
O          -2.24596828661952    0.05832718070375   -1.35995585042985
H          -1.84732147597746   -0.83122314707451   -0.19777866014994
H          -2.39902351409787    0.87724644329891   -0.84179716960653
H          -1.35472542781990    0.17644874887745   -1.75436139480903
N          -1.36828808710047   -1.37098085040770    0.61403577216143
H          -0.63553609213435   -0.73497018706875    1.00969273932473
H          -0.88149745318320   -2.20494448222066    0.20932123055777
H          -2.03050948224860   -1.63490143987201    1.33431149029974
