    26
        -50.46725491  Gyration_radius:  2.51561513247 Dipole_moment: 2.203
 S          -0.61497233368790   -1.98384166365005    0.62993756884279
O          -0.02007942128040   -1.44448627660072   -0.59530644036171
O          -2.05027367101845   -2.02537264450595    0.58688541935484
O          -0.07367625696804   -1.32265725936550    1.80655355716732
O          -0.12909978200590   -3.49730225249505    0.69774467992243
H          -0.90758880023414   -3.93668302408036    1.02427490578367
H           1.47518145114850   -0.74858583890997    1.81881124417223
O           2.35409919373123   -0.30886737978683    1.87551546961618
H           2.66469715960812   -0.46922662230008    2.76763031369476
O          -1.07086604160426    1.08533086518011    1.09621748309410
H          -0.82553131346555    0.23678087471751    1.50192912037309
O          -0.76683528356469    1.92146285291911   -2.56512835348436
H          -0.99846845791375    2.72311209904759   -2.09101650552106
H          -1.41141272617656    1.24775329880421   -2.28298792383451
O          -2.13770319274175   -0.01432974344474   -1.25599475103091
H          -1.38333349473272   -0.62778207186566   -1.12989546363474
H          -2.88794486394999   -0.50281532582708   -0.90414137361277
H          -1.58360596621076    0.85726591248193    0.30572623630874
O           1.44226679819945    2.00695171558132    0.89298745040340
H           1.89652817146205    1.29910081704770    1.39776426877725
H           1.47542485110163    1.32303374235138   -0.46115580384281
H           0.48863450722758    1.87908422675670    1.08817916008938
N           1.32873821225129    0.72298820401055   -1.35438784408264
H           0.62265703505617    1.20466873433954   -1.95913223687739
H           0.91382951948293   -0.18764604687441   -1.04351255631325
H           2.19933470628233    0.56206281648815   -1.84749762497602
