    26
        -50.46725431  Gyration_radius:  2.51545350535 Dipole_moment: 2.187
 S          -1.12351931840361   -1.64051976757494    0.86800302479245
O          -1.16812956203538   -1.42806622840521    2.28804679046619
O           0.22545916598681   -1.51339358453192    0.31153427427704
O          -2.07561115599748   -0.83861035370945    0.11627224385034
O          -1.52880230874309   -3.16102459390055    0.63318238203131
H          -2.00254934231511   -3.36288679096597    1.43364618158292
H          -1.86549105705021   -0.56790851487436   -1.49912031245902
O          -1.76717790215559   -0.29350880929880   -2.43949277967677
H          -2.65414847624282   -0.29614434724606   -2.80207934792437
O          -0.85298430634370    1.47997929162210    0.76979747184509
H          -1.43947729613793    0.71768075908337    0.62939167840985
O           2.90661265586420    1.39426076120786    0.68325381066408
H           2.62481072089999    2.31034556990727    0.73491166847129
H           2.43817591811826    0.92912190451191    1.39966677705895
O          -0.30240354423642    1.86077270659322   -1.83068600907023
H          -0.93824627766135    1.21601887234049   -2.20810472022575
H          -0.57272384456802    1.95633374394706   -0.89185801221232
H           0.84672130241479    0.89178319762289   -1.62220347010065
O           1.10264655274441    0.08320805994293    2.22213955042832
H           0.60216791715811   -0.16687466272019    3.00464594159284
H           0.87162413725741   -0.61067155826642    1.56920887075939
H          -0.17072606377598    1.17343537790619    1.38645999893525
N           1.55940673565267    0.14106984445164   -1.29374586882988
H           2.22275776362336    0.59291382444093   -0.62140265549902
H           2.04613098325328   -0.28394541628861   -2.07442124868405
H           1.01547659269636   -0.58336927576831   -0.76704624047757
