    26
        -50.46725531  Gyration_radius:  2.5160317079 Dipole_moment: 2.202
 S          -1.93222759438509   -0.28662755297819   -0.94592120184204
O          -1.49576387640713    0.32699353852936    0.31073732323983
O          -2.28011416316931   -1.67307796091681   -0.80314152382129
O          -0.98290207419940   -0.01790093739880   -2.01403895584087
O          -3.27680724016765    0.46994472120117   -1.33436807522330
H          -3.80976990489778   -0.24277116854784   -1.67163910271451
H          -0.10028860864386    1.37841506417318   -2.03691147059912
O           0.51908965027316    2.14249497530127   -2.07713029486753
H           0.58410617995629    2.37205825067905   -3.00515878840366
O           1.00435246164524   -1.37613024874403   -0.78741686138700
H           0.30782006547424   -1.01873694862556   -1.36351081446671
O           1.25134718370156   -0.82888347243687    2.93531665360042
H           2.05512098103508   -1.26446339273753    2.64323327029039
H           0.51517592804039   -1.35853744873188    2.57955397455860
O           2.38723314078943    0.91760853459944   -0.60440175318577
H           2.09646641807357   -0.00906756307828   -0.74771458653650
H           1.88733332807268    1.44035444197557   -1.26710498839642
H           1.50635617387919    1.23397093336021    0.58982508801814
O          -0.67726545435697   -1.93841423575410    1.38954177147513
H           0.54291068837673   -1.74269984247659   -0.01770195273735
H          -1.08755076655928   -1.09891852551124    1.09249852903901
H          -1.24537141963197   -2.61501017312523    1.00904331448640
N           0.74627574884260    1.30762525050492    1.36207951451717
H           0.95855314393494    0.59472286523707    2.09896101244335
H          -0.16503617471625    1.04417829216941    0.91692364348170
H           0.69095617510998    2.24287259345978    1.74844629483320
