    26
        -50.46147051  Gyration_radius:  2.59197120247 Dipole_moment: 4.229
 S          -0.32317915321254    0.50299577852330   -0.44589859146557
O          -1.00567730891113    0.21785705723256   -1.68496133971808
O          -0.05938477983868    1.93724767764813   -0.23746517823161
O          -1.26681500932189    0.12107842495387    0.75324137516458
O           0.90269194823387   -0.26030525276092   -0.25861976662226
O          -1.67154156574407   -3.50510273355094   -0.92150610402685
H          -1.99631598888130   -4.16604056512264   -1.53486402600924
H          -0.88718793980236   -3.08939651745991   -1.35458711496514
O           0.25871320968520   -2.10650918067387   -2.11293785132625
H          -0.26722407694277   -1.31587374336903   -2.31959349491651
H           0.84000918704071   -1.78269936211974   -1.40963177198788
O           2.57357812697276    2.53431206911055   -0.17206319597657
H           1.61233303466811    2.40732662191535   -0.30061531034393
H           2.98041600505534    2.33880141040459   -1.01743431158342
O           2.44492557148064    0.59480619911214    1.68376985154930
H           1.23068694873165    1.26664930403965    2.23236352812470
H           1.97326486101906    0.05964963141457    1.00239807896711
H           2.82875140175516    1.32318399247547    1.15377262703795
O          -2.98796870731107   -1.20695013098744   -0.55592123869750
H          -2.62596779398107   -0.73809128519466   -1.32328186795309
H          -2.62061695755655   -2.12060624424855   -0.60493855777155
H          -2.01391163777157   -0.43719181404394    0.35824364922944
N           0.24824769780053    1.75991724663657    2.30542268411438
H           0.04066067227408    1.99983240633794    1.27616211722926
H           0.25453592802982    2.57918669644411    2.90439879019298
H          -0.46302367347701    1.08592230328294    2.58454701998477
