    26
        -50.44910290  Gyration_radius:  2.52664106407 Dipole_moment: 7.160
 S          -0.06408194993976   -1.56770470239673   -0.35759195411265
O          -1.54140573293616   -1.17530784958599   -0.42015674869298
O           0.36687595248682   -1.88015146584230    0.95998740986620
O           0.70195491762001   -0.51002232419440   -1.01366783926729
O          -0.01471425567418   -2.81701283621691   -1.24593154516208
H          -0.32261663474887   -2.48037703264927   -2.15609535713431
H           0.44030238980528    1.10347533269595   -0.70941823132924
O           0.21026699282334    2.03440965735442   -0.49106360427682
H           0.56762389925450    2.58225208757383   -1.19144173708341
O          -0.77039987816777    0.83245325584782    3.11014752237766
H          -1.03661725457852    1.37792347347856    3.85151180208493
O           2.62157575996956   -0.34155097147687    1.00103934315956
H           2.12589299747307   -1.03003865083049    1.46265476381784
H           2.21115401785908   -0.31853551534506    0.12650397805101
O           1.42139283324857    1.85213334136037    2.04445366843526
H           1.04170043173342    2.14443284359341    1.20319027959501
H           0.11111515187748    1.17562595841405    2.81279986485561
H           2.01056801771445    1.10655031619940    1.80750817958731
O          -1.97050697213996    0.95394046167769    0.78942891420270
H          -1.62036653249699    0.84028462469218    1.71517483352499
H          -1.34475169383859    1.55371972819589    0.35018331535869
H          -1.77239791586117   -0.29380467885755    0.13070563487151
N          -0.78083734955672   -1.49560204303469   -3.31367776049668
H          -0.63887586104863   -1.67023085135261   -4.29962994085333
H          -0.20236407264896   -0.71830057068118   -3.01623857983290
H          -1.75048726822466   -1.25856160862866   -3.15037621155153
