    26
        -50.47117019  Gyration_radius:  2.45848605924 Dipole_moment: 2.476
 S          -1.70877470894291   -0.93031214381837   -1.15593848784815
O          -1.90063519431952    0.06419335559104   -0.11299956222277
O          -1.77162942580410   -2.29259881622919   -0.71057267584092
O          -0.48426771436870   -0.63857776554547   -1.91610703772502
O          -2.90444255361261   -0.74240939079053   -2.18851360414043
H          -3.30935523979114   -1.60392289216732   -2.18014678982225
H           0.46879516092679   -1.57837204511557   -0.89853058462088
O           0.98745454886143   -2.03897345104038   -0.20652666093393
H           0.69668103553255   -2.95271154815815   -0.25509381140331
O           0.89360946208295    1.07361104220634    2.34082393145447
H           1.02509034459736    1.20622224362958    3.27982897539016
O          -0.68800719489740    2.38436033362251    0.49758407853780
H          -1.31647635243822    1.65572242402616    0.32410363799502
H          -0.18300487106501    2.10244078110021    1.28175803073956
O          -0.52971756020221   -1.04762565263228    1.88314434060481
H           0.32668173062606    0.25235804588851    2.24752535118994
H          -1.21695797833160   -0.71028739202342    1.27843435481208
H           0.04164575662990   -1.58918287401062    1.31253406355221
O           2.55818106604476    0.22216425361531    0.34006294758322
H           2.24065622554686   -0.68422580817709    0.21180859656883
H           1.72845806470935    1.05039637056121   -0.75781758912870
H           2.12612904849027    0.54338431160389    1.15446266646513
N           0.94648908851677    1.48393356926880   -1.33134183954115
H           0.35905518096408    0.68515973326776   -1.69327189261708
H           1.29702752152974    2.05878192731752   -2.08816424374747
H           0.31731453872532    2.02647138800749   -0.65704621528553
