    26
        -50.46862862  Gyration_radius:  2.47495094972 Dipole_moment: 4.030
 S          -1.26289385627681    0.05655644638689   -1.85677563543589
O          -0.94715113481244   -1.17289269089218   -1.10956464066574
O          -0.09495557972639    0.87899583435910   -2.01668948067539
O          -2.42240105158751    0.72944192605692   -1.30880946885094
O          -1.70022374531749   -0.43175746775914   -3.30334240802801
H          -2.63196753654011   -0.57453108434422   -3.17432993110728
H          -1.82876554541776    1.41091034516618    0.02228074723005
O          -1.47254681821010    1.73548502209544    0.88569782593675
H          -1.86001639959719    2.60156405371085    1.02374752253316
O           1.01416101441359   -1.18894398088204    2.23704542426820
H           1.09328973140511   -1.70067815913717    3.04220008342931
O           2.34102006820796    1.04111220941618   -0.94988669104667
H           2.02128084037126   -0.40425634477742   -0.67753176688863
H           1.56171798814424    1.20132523044039   -1.51456394865055
O          -1.46898563241104   -0.95002374172475    1.51342991544160
H           0.03368636599533   -1.12928868378386    2.03301235550086
H          -1.64845203094718    0.00154150825240    1.55899030187297
H          -1.41856901157825   -1.14156138404253    0.55582673843875
O           1.24134774883495    1.53967045725489    1.42579143404462
H           0.30356171531545    1.68736057720495    1.21434334798148
H           1.27694299706031    0.68522189367447    1.87654636508548
H           2.08953908460916    1.41794338807292   -0.07438293398343
N           1.57821626318237   -1.36811957756851   -0.41832130126871
H           2.08590532521409   -2.14387020526441   -0.82715894396346
H           0.57981392652119   -1.34000883717156   -0.77371935869508
H           1.53644527315540   -1.44119674474094    0.61616441749664
