    26
        -50.45538180  Gyration_radius:  2.56577030504 Dipole_moment: 4.087
 S           0.01408267891409   -0.18891858557500    1.03160907168269
O           0.68971238266244   -0.27609826867981   -0.28680133082131
O          -1.07697453855268   -1.12871917926380    1.11345891263609
O           1.08284131677632   -0.53268239948558    2.09207057287048
O          -0.38049258036032    1.19704015780720    1.27240599641561
O          -1.76266013966223    1.75432118068507   -2.32419356160785
H          -2.15917332842011    2.62684178873845   -2.36720953440541
O           0.80849072690328    3.25710978540369    0.25686249209865
H           0.32042413748113    2.56074559129313    0.76909276770873
H           1.64163406907866    3.38989755891746    0.71274743527248
O          -2.62414969211209    0.76389012788658   -0.06576205016096
H          -1.97671165709208    1.16394700152989    0.54222559960575
H          -2.16463275767781    1.30727003139697   -1.52841108321715
H          -2.52034903800143   -0.17949932918195    0.11777130250675
O           0.70656267947984    1.69834715065932   -1.75004851431456
H           0.74336967016069    0.80038830568594   -1.15412767503928
H          -0.27433877699608    1.73905392489744   -2.07721431943532
H           0.81404548843297    2.43897265420372   -1.05178883502259
O           0.55572315724692   -3.02035181244760    2.10533585815732
H           1.00190025212979   -1.53251416423447    2.22446542624957
H          -0.34182472567258   -2.72741291409030    1.88619666969165
H           0.96148102673759   -3.25373735285097    1.23384783446911
N           1.43693146690062   -3.06385470115847   -0.43539863331673
H           1.19583440803017   -2.07550901601682   -0.50356127078635
H           0.89422502030368   -3.55893285156484   -1.13192103592579
H           2.41404876332474   -3.15959466456024   -0.68165211530707
