    26
        -50.45034905  Gyration_radius:  2.65655653342 Dipole_moment: 4.684
 S          -1.62427818563349   -0.79189342943939   -0.63483672684548
O          -1.92250603511998   -0.46460494675137    0.76104235418393
O          -0.46239815146920   -1.67077085422699   -0.73731137729795
O          -1.43173778765555    0.41474262716859   -1.43323153661987
O          -2.86647309735390   -1.54973758233542   -1.17674598743192
H          -2.60599903005362   -1.74899938267433   -2.11093617122241
H          -0.34915331323141    1.34157913841729   -0.76655896060430
O           0.42126379138078    1.84633590075405   -0.37805396443781
H           0.61718447446196    2.54294810004771   -1.00664249387534
O          -0.04878326592948   -0.32223278168147    2.35018037297200
H          -0.92710625210112   -0.43369750253307    1.75224732300881
O           3.02346408622980    1.02453978948219    2.25921801300961
H           2.83879998296459    0.37087330031464    1.57090380652357
H           3.44500099561662    0.55795879606082    2.98222329950356
O           0.52222703990277    2.12848064326166    2.33208617013553
H           0.06334473020519    0.70991926159554    2.49300242939743
H           1.48598723538206    2.00736235163227    2.42515508774169
H           0.36912768463150    2.25024743968325    1.37566635286048
O           1.55578864196792   -0.51041636660603    0.37667224448238
H           1.36689412918430    0.37644625187638    0.01171370077707
H           0.69116374677757   -0.53112975760221    1.66842715104382
H           0.92537841502509   -1.09835898344505   -0.11673289002477
N          -1.50936343720990   -1.68810956775020   -3.40310359370951
H          -1.39874077513890   -0.68070875317891   -3.36838865803299
H          -1.43223038720048   -1.99853475366087   -4.36358569954281
H          -0.74685525562510   -2.08223890841738   -2.86241025600300
