    26
        -50.45234080  Gyration_radius:  2.45881817304 Dipole_moment: 5.678
 S           1.79893761884194    0.57665142736288    1.09254568429026
O           1.36303841635315    1.14917544432660   -0.17192231428705
O           0.51394635127386    0.16350923584441    1.86433594216686
O           2.51360091217694   -0.74328983294190    0.82212249975129
O           2.59250326045860    1.42373907356494    1.90323527882895
O          -0.89456875251498   -0.67592194546541   -1.99657571959317
H          -1.29892621971380   -1.10243473107648   -2.75301346344375
O          -0.63400676210987    2.87658658896013   -0.15548287844151
H           0.19134880683181    2.34388133252372   -0.14121841765209
H          -0.52174736090635    3.56451203778976    0.50165810155457
O          -1.58697067181543    0.39833461535221    0.41475871811529
H          -1.51196973459302    1.35128407558080    0.21395572105189
H          -1.43343836133260   -0.05542662892195   -0.43490145582157
H          -0.31880349084557    0.22184152848215    1.28457309453603
O           0.40208865197587    1.51295325181987   -2.66128561375055
H          -0.13920648709772    2.26251254758000   -2.39261943959846
H           1.03525484073330    1.38908828970573   -1.93489095950978
H          -0.40757700738777    0.11937346193714   -2.33965982485718
O           0.76239519779033   -2.12154220052927   -0.34488961137091
H           0.11925346907211   -2.33108765549474    0.38104018815081
H           0.25925656494756   -1.60919159436493   -1.00334642243333
H           1.85467164855072   -1.33835978769351    0.30037628845106
N          -1.00947155371519   -2.38914795402352    1.67005079544708
H          -1.38330829227475   -3.26379654095999    2.01522757215864
H          -1.78398462664016   -1.77380670804369    1.45043053443336
H          -0.48231642809948   -1.94943732133603    2.41549567182276
