    26
        -50.46691575  Gyration_radius:  2.4577954465 Dipole_moment: 2.720
 S           0.41747766818904   -1.64684004635904   -0.93293660309878
O           0.43984322665149   -1.60313040897822    0.51668593468412
O           1.70102440937123   -1.81742447046475   -1.55388213620894
O          -0.38573951582355   -0.55957151256466   -1.48676619988809
O          -0.42465165999475   -2.96743242683041   -1.30804765191407
H           0.24935114765310   -3.57806386055061   -1.58990690606404
H           0.02300580413442    1.01890690449002   -1.55638228832645
O           0.32422890236845    1.95613259783923   -1.52093810717395
H           0.03664149378497    2.36408305286103   -2.33882709592698
O           1.62695913316908    1.18597579392869    2.12902148154949
H           2.41703449430725    1.54874870341009    2.53120961728956
O          -2.76377939039459   -1.21715905351555   -0.56713930758161
H          -2.75489210375336   -2.17553602831209   -0.61082880591807
H          -1.96382888076413   -0.93792031875908   -1.06156853328118
O           2.43859996559692    0.48522111796006   -0.32800057822667
H           1.92503971444819    0.77278122710283    1.28801619959837
H           2.30919637820153   -0.37928765068362   -0.74856276375396
H           1.94365357366400    1.12671590718977   -0.85515241785264
O          -0.52686132834554    2.34308177355307    1.05588902803299
H          -1.17567392180827    0.95123666914467    1.29896000685503
H           0.29770353418764    2.12345969932392    1.54015121586187
H          -0.26653345210694    2.36254494423482    0.11679026378809
N          -1.43451193215237   -0.07628133517089    1.47817265475754
H          -1.66372752792483   -0.21956871953650    2.45541353241418
H          -0.59317754063427   -0.66562457736395    1.20365796943050
H          -2.19638221188275   -0.39504796176637    0.84497149094790
