    26
        -50.44892234  Gyration_radius:  2.60996474501 Dipole_moment: 7.152
 S           1.15098358696530    0.97142507535096   -0.19907266735894
O           0.80387541515802    0.65575811831823    1.16425077988511
O           0.08422264520924    1.47389975487077   -1.00608594395606
O           1.75198869844227   -0.30202719472401   -0.85466831864486
O           2.33798379974922    1.92842579506913   -0.22509055706640
H           2.96054479358759    1.58339655975625    0.52810727444928
H           1.02928740572570   -0.99817967400979   -0.99323412834241
O          -0.13085028855943   -2.02261823388718   -1.04143816764291
H           0.18764571094832   -2.92691944505604   -1.07067960217510
O          -2.73491538278315    1.28423181937703   -0.80975360674106
H          -1.86478732858124    1.67099901015744   -0.65172078745584
O          -3.29482762938438   -0.43544568117206    1.14059967104390
H          -3.13193580844321    0.27459205084830    0.47366287429591
H          -4.04701523463383   -0.93407911871700    0.81888017877459
O          -1.41745859731369   -0.15074603073835   -2.75086671866672
H          -1.11996619499216   -0.96267434239345   -2.32236039601753
H          -2.60453728887637    0.74740899470964   -1.61229830236295
H          -0.78991013474927    0.52799679515841   -2.46908870138878
O          -0.85840528820694   -1.48807956680731    1.33559351108801
H          -1.78700300081260   -1.15676441561740    1.35559592747936
H          -0.49859150337809   -1.87683851627923   -0.10011565738844
H          -0.30439986569889   -0.70000299646244    1.46943522316965
N           3.53986561978292    0.85052542750385    1.74564431985012
H           3.98890809852426    1.40274740403867    2.46392200435623
H           4.11747292429900    0.04797524172796    1.53473164917463
H           2.63182486803268    0.53499315893964    2.07605014152349
