    26
        -50.46691581  Gyration_radius:  2.4578774854 Dipole_moment: 2.720
 S          -1.49843283226975   -1.13435214465380   -0.47386359208814
O          -1.10787257153714   -0.04076988896426   -1.34297422100769
O          -2.76544236216059   -0.96566984203208    0.18049654954973
O          -0.40513456914503   -1.52838008487539    0.41132117323168
O          -1.67705973796303   -2.40805981670476   -1.44303669148604
H          -2.62283487243678   -2.50092789968200   -1.50214960477594
H           0.14191806468827   -0.71093266500328    1.71378146998308
O           0.44164556803697   -0.13729593448752    2.45636772397942
H           0.68256764473038   -0.72582357113298    3.17305402650715
O          -0.04796547102848    2.93138117752549    0.01384730082665
H          -0.35722583604616    3.80250385742722    0.26495473964405
O           1.33512378236178   -2.41267620347503   -1.35600390314828
H           0.77883330253070   -2.83402876349728   -2.01438741983193
H           0.73339956257094   -2.22706781948718   -0.60377939285981
O           2.00634315215628    1.45180992073316    0.86291949207768
H           1.79898493375800    0.70721686745855   -0.48590740051771
H           1.36457900686789    2.16339875700489    0.65213658248709
H           1.56454851468367    0.91160718502519    1.54350688141268
O          -1.72746022635613    1.27826735814709    1.29248227761488
H          -2.22253524770655    0.54480878006091    0.89510854939407
H          -1.11935051733489    0.88699389166486    1.93385243134012
H          -0.73598578743578    2.30535886941249    0.33240836382144
N           1.47331495780005    0.27612420274509   -1.41494678848361
H           1.83143448205986    0.81019813043046   -2.19891888536909
H           0.41001721515535    0.28805004055512   -1.41205853013258
H           1.72458985393577   -0.73173441431118   -1.47821110216767
