    26
        -50.46691569  Gyration_radius:  2.4576314527 Dipole_moment: 2.717
 S          -1.48888265695529   -1.23787469614267   -0.08050760450708
O          -1.76090542587268   -2.11029890566975    1.02713081555493
O          -0.26161051570696   -1.52460060865808   -0.79843043571865
O          -1.60806470805186    0.18588433709359    0.22386577070101
O          -2.67430634495928   -1.49834521579552   -1.13903043926147
H          -3.03899927533938   -2.32957913805063   -0.85155801652234
H          -0.77313140597746    1.01615635028240    1.35412267452900
O           2.76950521234573   -0.73701877108157    0.60633105302243
H           3.48548658279271   -1.11249641277022    1.12006980193698
O          -0.19857857838539    1.45253493916070    2.02480365980016
H          -0.74568704826235    2.10188887194223    2.46872175813351
O          -1.78271620029093    1.17291353286265   -2.21109948739932
H          -2.29597347371674    0.50947714050006   -2.67680978089535
H          -1.84813110794800    0.91986080836858   -1.26558583500962
O           1.91008177574639    1.77273223333828    0.30230429721135
H           2.41159094395447    0.95208206300636    0.49629000282782
H           1.25024357174059    1.20041113815352   -0.98424597095672
H           1.20915722697527    1.80229454567072    0.97890274536878
O           0.59351606605317   -1.27226535008251    2.07781805415232
H          -0.21985850248409   -1.69673829411334    1.76285306736001
H           1.94310981705651   -1.05470159769942    1.03415921302453
H           0.35180726938406   -0.37608352944431    2.34775600383579
N           0.81951316578994    0.62660048632776   -1.78421298666038
H           1.49878086561148    0.48134651664188   -2.52283309176324
H          -0.05798658424228    1.06071898763050   -2.13701964078466
H           0.51203933061229   -0.30489946139951   -1.37379562810140
