    26
        -50.45234087  Gyration_radius:  2.45888655033 Dipole_moment: 5.682
 S           1.58033029433178    1.08870958314012    1.03963682509955
O           1.63556969275620    0.64406677933207   -0.34451137703700
O           2.37049592237648    2.22255247754286    1.34714541267519
O           0.08745159775080    1.38766250891057    1.35515864379177
O           1.92920378440052   -0.08137882897245    1.95353967909405
O          -0.55604300845425   -1.82917572340252   -1.26051158597308
H          -0.87739118482318   -2.64090066044662   -1.65480169237770
O           0.27037556008468    1.99012237632583   -2.16047088888207
H           0.88150142719905    1.57869647209323   -1.51057524499945
H           0.41762335663348    2.93521540052073   -2.10742326548630
O          -1.45740787384478    0.64741051998963   -0.55183783430871
H          -0.53361147900182    1.06532258423757    0.61808537014590
H          -1.06828365933957    1.19013589039990   -1.26463434902206
H          -1.24497770592248   -0.27502998632793   -0.78721972262952
O           1.43150522599272   -0.77687452240432   -2.62304155535739
H           1.08058311280517   -0.02689360252712   -3.11439175122239
H           1.81324490411322   -0.39094808624006   -1.81727600774502
H           0.20469544555564   -1.51812313441787   -1.81900393338216
O           0.18147875272840   -1.80020254364529    1.38865190179024
H          -0.64623783237368   -1.41723300726357    1.77950293752768
H           0.01522622633802   -1.86533661919281    0.43087085166319
H           1.26907258196997   -0.84038335482278    1.73295805139392
N          -2.01357010427365   -0.51237629095326    2.27977104218797
H          -1.57355548774524    0.29518969426151    2.70533553104464
H          -2.69365568806622   -0.88585378002578    2.92927605736747
H          -2.50362384118743   -0.18437415611262    1.45576693465198
