    26
        -50.46691581  Gyration_radius:  2.45773113696 Dipole_moment: 2.720
 S           1.19241979761377   -1.51521780014447    0.19188996796267
O           1.18179378852472   -2.29150484683111    1.39990968245556
O           1.70055641050736   -0.16439618277162    0.33693126008313
O          -0.06329127267245   -1.53520374631717   -0.55435654537805
O           2.22808334197341   -2.25845488103139   -0.79226130025526
H           2.72378903221459   -2.81535102496757   -0.20002234574753
H          -1.52856251536113   -1.06177627696470   -0.01343166273735
O          -2.36647697881074   -0.71558189829173    0.37179832423885
H          -3.06698272315718   -1.28694794994826    0.05414119958067
O          -0.20959911036502    2.22643779807105    1.89432980481787
H          -0.35399390020823    2.64526043233345    2.74363027441213
O           0.76979171356974   -0.67233638062723   -2.89876169306029
H           0.36583018244801   -1.11197784980360   -2.12041739830957
H           1.63967259887734   -1.06918231599717   -2.97801314600786
O          -1.79585089750064    1.89718405841739   -0.22866543183158
H          -1.36785304647521    2.17342270612033    0.60979827508913
H          -0.45037961802585    1.67753114380385   -0.97643936004807
H          -2.15415588940374    1.00948449423021   -0.04479902759102
O          -0.44649280403736   -0.38838729381903    2.43726026471805
H          -1.26435004293396   -0.58377563879180    1.96054673244816
H           0.18750619430152   -1.08240127187211    2.19778376123085
H          -0.12874891331592    1.26518530775314    2.08473919441931
N           0.55410657528783    1.49143337904572   -1.30989242015836
H           0.57131701249358    0.87286883568667   -2.14653912165862
H           1.03922053726080    0.92822479721173   -0.54952269951791
H           1.04265053714195    2.36546241553431   -1.46963656912767
