    26
        -50.45059453  Gyration_radius:  2.46317805466 Dipole_moment: 4.138
 S           0.76772170981616   -0.02675830372209    1.84758406105107
O           1.32313475293374   -1.25775258869793    1.07922759559760
O           1.61537978714842    1.13569476416550    1.30436136435189
O          -0.60447272663387    0.17794578294939    1.42450037756879
O           0.96498112949651   -0.21114558792575    3.23619825293839
O          -0.35795835154505    0.67313539351920   -2.12311737433178
H          -0.72013247240428    0.77654651228488   -3.00349952055945
O          -1.75316317898339    2.59604110345338    1.42710764302697
H          -1.52491683705015    1.65051080786491    1.50999392557165
H          -1.70144150191147    2.96749206448406    2.30907400039915
O           0.29561909929664    2.55359988093339   -0.28175617128054
H          -0.50351947281281    2.76875217980829    0.24801681594298
H           1.07214135405795    1.74481272486459    0.65021100293500
H          -0.01127476384412    1.96594603202608   -1.00167271713114
O          -1.78233447315866   -0.94623597118736   -0.74106613120571
H          -1.33800646234609   -1.82568827960652   -0.76405994379507
H          -1.55792439793871   -0.57606589417297    0.12961140992927
H          -0.98076033683483    0.04691590236273   -1.62594359525188
O           1.96550634217488   -0.26184751413401   -1.19827626833728
H           2.45882681984481    0.52735427830793   -0.95759463239429
H           1.58468488740596   -0.93110014947116    0.16396385862571
H           1.14666491556782    0.04594424960475   -1.64708888460604
N          -0.27720805436426   -3.21278546003151   -0.56652971188883
H           0.30790862396346   -2.87838608045649    0.19268774613773
H           0.33028012438839   -3.43106959549622   -1.34626255978544
H          -0.71973650626456   -4.07185625172790   -0.26567056351006
