    26
        -50.47250304  Gyration_radius:  2.48724176644 Dipole_moment: 2.878
 S          -1.58534199813315   -1.50923612232132   -0.59291766778893
O          -0.81041794773644   -1.35944895363107    0.62398102652610
O          -0.73447399447851   -1.70602955665092   -1.76009033178629
O          -2.55216904029810   -0.44743460235163   -0.79678023284476
O          -2.42465864922873   -2.84154101607220   -0.41948804503173
H          -3.00736114818110   -2.78859807654370   -1.16919321750327
H          -1.88941295341188    1.00122839119274   -0.77002892241854
O          -1.47023682226170    1.89788775833360   -0.68847215649426
H          -2.03071881087227    2.49669058917661   -1.18411550394292
O           1.58616054878578    1.29523642705849    1.84385645368532
H           1.89233847924886    1.78107635756616    2.60982239321836
O           1.82709580037390   -1.37331509011955    1.19857305874701
H           0.87127665376851   -1.56576248578395    1.18596419385817
H           1.89467435978858   -0.47427709043320    1.56909895223735
O           1.25697699282689    1.81453423208349   -0.84128580631717
H           1.54794894774702    0.30862888553946   -1.28273201309838
H           0.28713230676214    1.92263323311096   -0.85744469030712
H           1.49632425172401    1.78536821837196    0.10261149121965
O          -0.99915670857711    0.98118116280212    1.89776460599154
H          -1.04856099622632    0.06551231949348    1.55668916912213
H           0.59493516773055    1.19897138392188    1.94723191185480
H          -1.31123191653924    1.52907649923685    1.16267681276746
N           1.65406084987639   -0.74640753858971   -1.34767199737576
H           2.35357752300902   -1.01379489473388   -2.03033807313115
H           0.70773243506665   -1.16166480834911   -1.58873364901540
H           1.89350667846721   -1.09051521181876   -0.36897778003175
