    26
        -50.47250291  Gyration_radius:  2.48702751284 Dipole_moment: 2.885
 S          -1.83794423877402    1.32764146482104    0.03889437361271
O          -2.17240657551088    0.61905895525775   -1.19046287676928
O          -0.42502785219210    1.64664027670997    0.11383014294843
O          -2.33952484288165    0.64303706502947    1.21506169151201
O          -2.59978044819924    2.71529048951453   -0.02160520595027
H          -3.50180096041831    2.43324008541628    0.08457719497718
H          -1.52419185118692   -0.68732435785841    1.53858862509822
O           2.68102638048771   -0.48703570122370    0.40841256191733
H           3.55255824982050   -0.54907869820952    0.79967984966774
O          -0.96638892692433   -1.47801492845689    1.76190798280931
H          -1.53392495393576   -2.06901552647922    2.25889964222100
O           1.69466667803112    1.23352532434149   -1.50574179671985
H           1.01633082204049    1.64515236254063   -0.93893204455631
H           2.23316149457316    0.69481508967696   -0.89752869582514
O           0.67833680963628   -2.24842865954114   -0.28010953715870
H           0.06333349197001   -2.07455445812862    0.45752535474341
H           0.16696443049013   -1.36130641832908   -1.50418298396493
H           1.50215247530868   -1.78624690863315   -0.04179994296455
O           0.96017279082349    0.50617060711509    2.09304709855298
H           2.08645212234505   -0.08143955841775    1.10436385855519
H           0.45061166215440    1.06996838410894    1.47687650823490
H           0.37015920420941   -0.23781184887630    2.28307794135413
N          -0.08141461239567   -0.58160553717151   -2.18171307180999
H          -0.18611878492694   -0.92458484169433   -3.12946072306140
H           0.68691280929742    0.15096697591838   -2.10035842584377
H          -0.97431537417590   -0.11905961794585   -1.84284752184229
