    26
        -50.44833786  Gyration_radius:  2.5318456702 Dipole_moment: 7.403
 S           0.48856132120248   -0.91066833358057   -1.07649715429900
O          -0.94138811437521   -0.65755447700406   -0.55776690365238
O           1.34023078439200   -1.35644991923142   -0.02344662390107
O           0.93375284820393    0.29932723201336   -1.74118104647099
O           0.27394939260255   -2.01628073195068   -2.10560425450763
H          -0.31431298280733   -1.56060530688508   -2.81736850221493
H           1.45217502549797    1.41098973818238   -0.62449616974865
O           1.57819409428401    2.05348019053823    0.11055786230069
H           1.98206310058682    2.83372064646302   -0.27371682263602
O          -0.37822266033485    0.24792391873031    3.11650143834526
H          -0.38749169648990    0.41259404576097    4.05979890254986
O          -1.84782687379095   -1.93360031434738    1.94608864232271
H          -1.37385284682030   -1.26476003829923    2.45697251705365
H          -1.63562773857126   -1.75857118179166    1.02549022280185
O           2.05642087081677    0.13850805032342    2.12591606732001
H           0.57293627146922    0.14355916963594    2.84933586939429
H           1.95380990338862   -0.58496279801537    1.48518524253369
H           2.11055657337409    0.93742056139324    1.58295769795678
O          -0.98386243968207    1.43667606105575    0.81164267075916
H          -0.10989079318437    1.83545553687425    0.63770293515163
H          -1.01360937168024    0.23162927397009    0.00432104042640
H          -0.93583147394214    1.07887283341602    1.72579615421922
N          -1.10452096664899   -0.47431965875265   -3.60004981248095
H          -0.51755745013597    0.29867507273874   -3.30335955984869
H          -2.02807736526717   -0.35413972085724   -3.20568123596850
H          -1.17057741206190   -0.48691984036128   -4.60909915728552
