    26
        -50.47250311  Gyration_radius:  2.48720267838 Dipole_moment: 2.883
 S          -2.04271323752381   -0.97069610461329   -0.17058733472622
O          -1.27364777384187   -2.20914743853791   -0.17611391706416
O          -1.40758197701213    0.06595876409416   -0.96147125997756
O          -2.38098934174039   -0.54605074125373    1.17438206361833
O          -3.41697343928941   -1.29299828357357   -0.88973740568645
H          -3.83325369981220   -1.85522764404343   -0.24540488610157
H          -1.12424658012590    0.01961135627073    1.97439337723322
O           1.82419654852212    1.98687083896925   -0.56077276488502
H           2.24691150174123    2.83835844434913   -0.67373242898543
O          -0.34489437522605    0.42760610158569    2.43520349874368
H          -0.51306279422923    0.33070909613570    3.37364219300245
O           0.85587006765495    0.20409491976816   -2.42585714207549
H          -0.07411048654135    0.24023463598526   -2.13485229415912
H           1.29810204629634    0.92033525864832   -1.93437538730145
O           2.03279359555323   -0.11818937908792    1.20303444999056
H           1.62891550614392   -1.21398195931926    0.11543311395209
H           2.13973560151225    0.67289915817980    0.64452570837586
H           1.23087685376939    0.04814798516231    1.73381967907713
O          -0.60284547879741    2.25169533784154    0.34688928721794
H           0.89698555130320    2.17238089515629   -0.23160769551017
H          -1.04092908681477    1.55302540138729   -0.17949149437105
H          -0.55344176699635    1.88437937374595    1.24160799941469
N           1.23621917346732   -1.75170202882989   -0.71246449710048
H           1.79104600623029   -2.57215699583870   -0.92656854858510
H           1.19417046367054   -1.06903391521962   -1.52846304177575
H           0.23286712203192   -2.01712307693634   -0.49143126224932
