    26
        -50.47250302  Gyration_radius:  2.48734196997 Dipole_moment: 2.879
 S           0.95888379443848    0.16927289671618   -2.04811993998660
O           0.01447780841264   -0.88295824789357   -2.40316447102008
O           1.53507651210221   -0.03997336377692   -0.73361967249132
O           0.39200961381875    1.49231733011747   -2.22680988674936
O           2.15843960451124    0.06147815126471   -3.07723400273658
H           1.73809333060173    0.35545712855418   -3.87804892583906
H          -0.68826809380425    1.85759734418868   -1.11411634256564
O          -1.31244119136362    2.09232186191882   -0.37813797829948
H          -1.90130041574926    2.75906006361266   -0.73458072224612
O           0.08022784197420    0.00448267759585    2.75412738224271
H           0.24133568830429    0.24512951681254    3.66660132635772
O           1.25086889400240   -1.92755801879719    1.17542435845716
H           1.62127229577041   -1.31400143680952    0.51428221549916
H           0.92710531789036   -1.35332600943687    1.89346395571075
O           1.01458465086699    1.80843813064147    1.12373990344464
H           1.36467750932073    1.21767330117392    0.42688329634331
H           0.21825608350271    2.19691311952628    0.73277434001157
H           0.48284649108725    0.73043428316722    2.19435164433315
O          -2.10156453688465   -0.08330573311367    1.07470787066647
H          -1.53824763333101   -1.31084566591139    0.22428874677342
H          -1.46578542719415   -0.05572231842939    1.81231689444150
H          -1.92197664651126    0.72006169407836    0.55035732434689
N          -0.94118331725489   -2.03726820723036   -0.27006644445193
H          -0.07927635176100   -2.18878992394668    0.33635182656995
H          -0.59643726718685   -1.61958841331055   -1.18263847100888
H          -1.45167455554703   -2.89730014072087   -0.43313421778028
