    26
        -50.45253295  Gyration_radius:  2.55247263061 Dipole_moment: 6.112
 S          -0.20065128103702   -1.04916094851338    1.18070895399913
O          -0.79635869407411   -2.18555146355431    0.55770566465111
O          -1.04267303917903    0.21577914387038    0.96483169254852
O           1.15362776852554   -0.77566848290774    0.72629798266132
O          -0.21071803205454   -1.21897517659177    2.69401943318767
H           0.09570651260868   -0.33882534059161    3.11060265038250
H           1.31339206187882   -0.89382365685556   -0.91287929538380
O           1.28345779364454   -0.79946397097081   -1.89244971780263
H           2.16479825192018   -0.99482783616840   -2.21497525963652
O          -2.53532751225725    0.11605298987276   -2.58701888976969
H          -2.72848253462427    0.16906115090134   -3.52388495483342
O           0.68351615952799    0.97071156360086    3.62372692886177
H           0.91702431760896    1.48487840044733    2.79314642226027
H           1.51074246523764    0.77720777444670    4.07046027508029
O          -1.18231732146087   -2.12436839653633   -2.13838589975741
H          -2.17266277524251   -0.78976378831409   -2.42815918687958
H          -0.28033106517614   -1.80325470821941   -2.28333349831179
H          -1.21913898931255   -2.33137490936930   -1.18980074818748
O          -0.51769167222532    1.21483364968845   -1.29211523119223
H          -0.85482325700547    0.65714270009979    0.05000423239795
H           0.17689742792871    0.63996633157131   -1.65614894859473
H          -1.33723724332685    0.97414180809599   -1.79110073757076
N           1.39600272682504    2.01324698210467    1.30274350851653
H           1.52852191367802    1.07831777431209    0.92163631536703
H           2.22827954341110    2.55830151395542    1.11658968881669
H           0.62644647418739    2.43541688565921    0.79777860921228
