    26
        -50.45352431  Gyration_radius:  2.57377702122 Dipole_moment: 4.241
 S          -0.47613303953126   -1.32385916658674   -0.12176983273134
O          -0.25699266353075   -0.32583503751676   -1.13992000495489
O          -1.90662387324989   -1.29477108078626    0.36370788087329
O           0.44793038191264   -1.17539979563677    0.98988584165083
O          -0.33477249110532   -2.72652740687788   -0.70634957498464
H           0.65466316246048   -2.98237124092889   -0.58336733020440
H           0.42748202901726    0.29524246705887    1.70312117222801
O          -2.62192955357882    2.69770925372091   -0.20864610065887
H          -2.79395741322572    3.61107338070990    0.02448775494480
O           0.27150862669025    1.19074982294306    2.08656107617503
H           0.66860162019417    1.18617882106170    2.95932665878112
O           2.13320701168707   -2.94798589002990   -0.27685271629948
H           2.03864189028798   -2.45958856386179    0.54996737265824
H           2.41820401738637   -2.27161888778482   -0.95555356458978
O          -0.00720588976662    2.29199124847616   -0.50364913559368
H          -1.66899788766455    2.64402230251009   -0.46084479251435
H           0.26274161535641    2.15648050177853    0.41434988011073
H          -0.06520463009648    1.39852780884482   -0.88662337373746
O          -2.37197969929639    0.80106288620209    1.60669983617582
H          -1.47899129624429    1.05659788259836    1.91495118478677
H          -2.62507315858185    1.47876666143973    0.92789653435751
H          -2.16318355518208   -0.40550795885410    0.90662358764840
N           2.42333056293970   -0.94057395363402   -1.99079955181781
H           3.04908379872625   -0.16546295997286   -1.80975602591129
H           1.47089117829119   -0.61283527221434   -1.83143305170469
H           2.50475927522137   -1.17606584297627   -2.97201372451433
