    26
        -50.45352427  Gyration_radius:  2.57381429152 Dipole_moment: 4.236
 S          -0.08412391744276    0.66582137991892    1.24193484598874
O          -0.78128885099429   -0.29296852660809    2.17873803230734
O          -0.85330688214706    0.86032515362585    0.03729676606018
O           1.26695807840428    0.21424591371866    0.95490363438243
O          -0.01862514581825    1.95815310736395    2.05111692743073
H           0.82682460488139    2.44827818251339    1.72758081514161
H           1.35441251172638   -1.15514477085802    0.06652232163205
O           1.27257869673113   -2.01536097077073   -0.40951992420736
H           2.13118795382140   -2.43888714208419   -0.35600337609760
O          -2.66944438279124   -2.57803820183910   -0.65019494235182
H          -2.86645569576328   -3.35294512007646   -1.17830252249801
O           2.06617583423803    2.84980351046375    0.96358172594527
H           2.42298709527697    1.95538484895704    0.90180186644057
H           1.64862056427268    3.03297579959982    0.07398292351074
O          -0.81726243953870   -2.58381742638972    1.22733098378436
H          -0.04591336088450   -2.56512519890657    0.62531491256335
H          -0.82833356760450   -1.30062736344918    1.81321370839729
H          -1.61484504002271   -2.63080522095546    0.63931701302957
O          -0.91202548750409   -1.02128530657101   -1.90596244862348
H          -0.08063882620889   -1.45205819290181   -1.66687395812307
H          -2.14830802808379   -1.96787217801649   -1.22522557256099
H          -0.98205803971138   -0.25429927852293   -1.31005129980547
N           0.63210209668328    2.95157391504802   -1.26899080642430
H          -0.01756576761879    2.24094149735046   -0.93303389744513
H           0.99888890396569    2.63637381749884   -2.15853074552410
H           0.09945909261854    3.79535781196904   -1.43994698237085
