    26
        -50.45234094  Gyration_radius:  2.45890575139 Dipole_moment: 5.682
 S           0.27875579069591    1.34990920832871    1.69221868297368
O           1.50919516084849    0.82858758013655    0.89744518739418
O          -0.83674256425704    1.39065269967271    0.75908507787235
O           0.01852812432572    0.26592147567614    2.73310985611384
O           0.59780202321786    2.58100976088968    2.31434114465332
O          -1.40712154611851   -1.44219459223142   -1.08896262313393
H          -1.88658231987031   -2.16273134811238   -1.49951724421126
O          -0.43906352384993    2.40954971489087   -1.64425147329344
H           0.00386886251376    3.25850466796222   -1.61659346553238
H          -0.61670516643678    2.16036029098798   -0.71070292063081
O          -2.86128526723501    0.73967655575795   -0.89274432136053
H          -2.56264627283008    1.34939606169435   -1.57544970590206
H          -2.03458937638725   -0.67388839657205   -1.03054830739126
H          -2.38845715652658    1.01336255309118   -0.08932621635270
O           0.86036024979988    0.03288591165856   -1.45119942387247
H           0.47868890587037    0.86943697700487   -1.78085745790204
H           1.25335878043235    0.47946813520635   -0.02215624567890
H           0.10618131072757   -0.58122581829057   -1.37732166753553
O          -0.20111005113487   -1.82546173580516    1.35259374193324
H           0.72795320635269   -1.99205522732788    1.04653520179377
H          -0.12665284083762   -0.61449797727955    2.21894517069877
H          -0.72488611635678   -1.68705735309467    0.54282903229086
N           2.31655743313185   -1.99665479960081    0.40259881275823
H           2.91993649253453   -2.80578557840309    0.47387745710657
H           2.74193973710094   -1.23316465166232    0.91549990190875
H           2.27271610429516   -1.71400410457976   -0.56944818471696
