    26
        -50.44833792  Gyration_radius:  2.53180382371 Dipole_moment: 7.401
 S          -0.07124040354187   -1.48934488370671   -0.07263542097701
O           1.26241142985333   -1.36841478282772    0.41699752491781
O          -0.36093502161086   -0.42343922751099   -1.14865970548632
O          -1.09985071006653   -1.37615758389599    0.94383421836122
O          -0.24955736961095   -2.79293655515551   -0.84494481220997
H          -1.24566676451260   -2.77477982163303   -1.10513991907987
H          -0.75179947527418   -0.12635852002896    1.97735164286588
O           1.97864864207410    2.44328362562345   -0.17708976380369
H           2.56312610532247    3.19723792723491   -0.09368272397602
O          -0.54826550432147    0.72490534950569    2.42780406746245
H          -1.13682532192448    0.78298729133966    3.18263285474681
O           1.87254389183239    0.86815846821362   -2.58459270327679
H           1.17955422868513    0.25959214285683   -2.31510603744445
H           2.02397046125769    1.44681408297184   -1.82616066340317
O           2.20741864063731    0.75147848441500    1.82456114994975
H           2.19111830252386    1.82695683588755    0.57254603438355
H           1.36596327403985    0.84718308594683    2.29231434963255
H           2.12841931645551   -0.09380192384580    1.35153122665997
O          -0.60839664158807    1.82040238383213   -0.06852493052319
H           0.28146402270801    2.21154483375295   -0.21406448775630
H          -0.49977333814557    0.53691384142220   -0.73608046060575
H          -0.65089061315184    1.60700394654250    0.88322927065946
N          -2.73507229561028   -2.33945251925355   -1.20252524490978
H          -3.48464866550429   -3.01485646513402   -1.27062310635435
H          -2.85231558252574   -1.63591120898179   -1.91961151327828
H          -2.75940060794740   -1.88900881753898   -0.29336085659879
