    26
        -50.44833791  Gyration_radius:  2.53192199974 Dipole_moment: 7.405
 S          -0.96201505355427   -1.09547528768559   -0.32477431703492
O           0.52970488527655   -0.93978826019894   -0.68277325437350
O          -1.72219568071117    0.00238387991286   -0.82452176108860
O          -1.05015874800586   -1.28709008424321    1.11031503586659
O          -1.33943039075943   -2.38782842027391   -1.04255177735321
H          -0.75836182066618   -3.09438332788588   -0.56995457237941
H          -0.93459392460909    0.16984966252825    1.89454028237836
O          -0.69297147411777    1.04808428823328    2.26777426135161
H          -0.85016836936363    0.99698121536864    3.21235981256621
O           0.97405105788233    2.85402065860859   -0.90756559027567
H           1.20486004232614    3.76953204449041   -1.06761895390581
O           1.34082091952718    0.81950981498155   -2.91144641459424
H           1.04834599220484    0.06626872815046   -2.39155952705025
H           1.23331178671840    1.59123401461645   -2.34058320064935
O           1.55669520373882    0.84449792654793    0.74006783928295
H           1.54253795808659    1.61743356820640    0.13308554941837
H           0.86809051449204    1.02133109093643    1.40917767133983
H           1.01210515702468   -0.21494969566791   -0.08796990816229
O          -1.47023485815514    2.56891810712169    0.02251971712264
H          -1.74616494745449    1.76424683761698   -0.44744708667409
H          -1.32763822215910    2.28022716087124    0.93482956097360
H           0.01761699129308    2.83850891617668   -0.63927222367358
N           0.22331519884229   -3.76274936592347    0.43372619638262
H           0.01324798117621   -3.13338773210404    1.20175743203138
H           1.18096703437374   -3.61603872618580    0.14319330739981
H           0.10826275659332   -4.72133701422005    0.73469194109890
