    26
        -50.47229300  Gyration_radius:  2.4803905806 Dipole_moment: 1.996
 S          -0.71593090260616    2.16349638281007   -0.00752999523372
O          -1.06554339968267    1.77030709874850   -1.35721548207285
O           0.56417589929065    1.59606764115039    0.40511108245691
O          -1.75779763156661    1.91021588546304    0.96878138332030
O          -0.52582518083501    3.73665948948477   -0.03633786958313
H          -0.65679399405381    3.95721397198708    0.87972545055298
H          -2.03446813862011    0.33344838587487    0.96224669460465
O           1.64852854919263   -2.03041368398180    0.78872627738953
H           2.16358015750205   -2.62994423999404    1.32889027826188
O          -2.13781525224641   -0.65116638977866    1.01373718801622
H          -3.07527855526198   -0.81070991104426    1.13390419068106
O          -0.66389130520470   -2.20464303015640   -0.69481816154007
H           0.15376108477353   -2.33936908783716   -0.18247801595396
H          -1.26231009348195   -1.71143765331685   -0.10224382558983
O           0.35277015799236   -0.30699222221498    2.25188679035583
H           1.20023288957681   -1.39513776520663    1.41845704829935
H           0.46861566860354    0.48528572125402    1.68674268498935
H          -0.57707968897187   -0.54898031469060    2.14224858363240
O           2.40851645484203    0.07399816880572   -0.83009935970725
H           1.22286753443672   -0.16669757805336   -1.86431843766889
H           1.92936030726450    0.76555626859647   -0.33396282568716
H           2.35212760990616   -0.71966824896313   -0.26794538379032
N           0.24618517271827   -0.29608270481633   -2.26912417257061
H           0.25462105250701   -0.41374417283213   -3.27534596222658
H          -0.30659223340697    0.56236704817788   -1.98826134508655
H          -0.18601618265585   -1.12962905950714   -1.77077681585940
