    26
        -50.47229295  Gyration_radius:  2.48040253758 Dipole_moment: 1.994
 S          -0.79728995627872   -1.94816241982963   -0.87256170318963
O          -1.35618906593499   -1.08269861286016    0.16153413094544
O           0.56347095958792   -2.33907819912964   -0.56576468895447
O          -0.96329429749383   -1.38209028470575   -2.19726489202653
O          -1.65684512658793   -3.27960162708394   -0.86281813289426
H          -2.39996472753618   -3.02628115430048   -1.40000352486965
H          -0.03725079121597   -0.07862206693520   -2.27245954155757
O           0.46961584250600    0.77335930816622   -2.28090219209868
H           0.85477221027088    0.84088996885224   -3.15599803460668
O          -0.25025227155419    2.35530464694279    1.36021965968460
H          -0.56666342747138    3.20938752962412    1.65500350405146
O           1.92481039502735    1.44208908333495   -0.05862989311778
H           1.26491797542415    1.92637793633099    0.46980883678018
H           1.48005956332911    1.23719307938933   -0.90288075629566
O          -0.42520267003705   -0.15016346214144    2.50866398130659
H          -0.94953958974015   -0.55724638733932    1.79218572694059
H           0.97167578089361   -0.62708079359422    1.91364337631900
H          -0.41964222437980    0.80203417568050    2.30277894324223
O          -1.68360517494319    1.44083880287904   -0.61454435720621
H          -1.08758177625348    1.46496949017593   -1.37566845132696
H          -1.71177523379170    0.49643870749557   -0.35416411802286
H          -0.85867434281203    2.06748281109988    0.61993561759983
N           1.75165904243164   -0.85408763862409    1.22466074394754
H           2.56361320453181   -1.25868831505924    1.67569887695763
H           1.98400477292991    0.04872188100498    0.71391973165807
H           1.33517092908475   -1.52128644936430    0.51560716671625
