    26
        -50.47229301  Gyration_radius:  2.48031718814 Dipole_moment: 1.996
 S           0.45976691500365    2.09390459813437    0.77251885285187
O          -0.98850596097143    2.12611721375258    0.78161048512743
O           0.97629876003663    1.38646494201392   -0.39522688744850
O           1.04604964716145    1.60194640761412    2.00414231743686
O           0.93839712157984    3.59887171497069    0.63869867010292
H           1.82136205631544    3.54610678768242    0.98872021765073
H           0.51143086816585    0.10757786797791    2.21398308294480
O           0.24562975446935   -0.84438802573777    2.29048090150322
H           0.08934572541855   -0.99905848992962    3.22342306310982
O           0.52306668640461   -2.22852110374089   -1.49024607397807
H           0.96881244040188   -2.97807216826363   -1.88513219822719
O          -1.44622674036105   -1.87980335691276    0.40108640105519
H          -0.81860939275194   -2.18701474716140   -0.27786976426052
H          -0.89320458156380   -1.56129814143230    1.13948441867256
O          -0.18232228569266    0.23000030966542   -2.53183421954965
H           0.36783982227710    0.76202807148318   -1.92497780793322
H           0.09302658639726   -0.69109184332341   -2.37399987666011
H          -1.48961194137601    0.34478047173764   -1.63126391101266
O           2.07982823183573   -0.96590413305844    0.17464490895258
H           1.18760069504797   -1.79049023492660   -0.88385134915297
H           1.81564964986386   -0.04722806272202   -0.04171940433691
H           1.68882676163468   -1.13233273557858    1.04331763601166
N          -2.13187600268409    0.37386135477811   -0.78203850965464
H          -3.09699521690988    0.55651818945002   -1.03021489971027
H          -1.74970686723388    1.13078144767365   -0.14772074115015
H          -2.01587272246826   -0.55375635414120   -0.27601533234425
