    26
        -50.47229284  Gyration_radius:  2.48013787791 Dipole_moment: 1.993
 S           1.15651382262961   -1.90394694430852   -0.47718276848888
O           2.22191007415679   -1.07600076026080    0.05017255647758
O           0.23179125681638   -1.13256275960732   -1.30211188387734
O           0.46093610347099   -2.68163864148242    0.52984835693535
O           1.84636096688361   -2.96047614408609   -1.43627740461938
H           1.19551950350234   -3.65411393117868   -1.44967632144493
H          -0.17182560078966   -1.63930490766441    1.56697408224477
O          -1.99922402700501    1.81630332853562   -0.40895807837042
H          -2.85986447993084    2.20691862273305   -0.56122198221557
O          -0.63204914579212   -0.98625186003405    2.15390953794820
H          -0.57237490650262   -1.34344081232546    3.04135780968947
O          -0.23498817216659    1.68585247096795    1.70035900461014
H          -0.37216305752258    0.75386916262653    1.95563678457368
H          -0.93709074576841    1.88274104990031    1.05424450380368
O           0.15111235120932    1.43696901308537   -2.09947877121929
H           0.15554627678460    0.46175082002400   -2.04546388542980
H          -0.67514080970251    1.70657147295568   -1.65924554441756
H           1.22212331159820    1.62095029510936   -0.93658977029643
O          -2.15751393165522   -0.77529478496643   -0.18829489453994
H          -1.34457136628702   -1.01666019717521   -0.67959767856835
H          -1.94263097661059   -0.95220146157605    0.73779562761218
H          -2.14215056754652    0.82751702591233   -0.35438976755937
N           1.75160434699756    1.49233729909518   -0.02137767314166
H           2.03325876574808    0.47226079627910    0.01677607383192
H           1.05472816347770    1.65917339873366    0.76383792725783
H           2.56018285400410    2.09867842870606    0.04895413920148
