    26
        -50.45234085  Gyration_radius:  2.45881120739 Dipole_moment: 5.679
 S           1.52579974719975    1.10010490988495    1.10642304703717
O           0.03396117316417    1.18598558073033    1.53592567341552
O           2.05068418785661   -0.14022004359738    1.82214272470056
O           1.53615115564084    0.86079543260434   -0.32866043458838
O           2.21472700633592    2.26016852135057    1.53542260906965
O          -0.44835746476827   -1.68588832705045   -1.48334618165337
H          -0.70980810783447   -2.46565909878566   -1.97447830219258
O          -0.07334877212549    2.28822341399816   -1.85957618186684
H           0.61719223180124    1.86000113562557   -1.30734598972942
H          -0.01943776052267    3.22718085979447   -1.67760212305427
O          -1.54827962970276    0.55432755181389   -0.37895773541743
H          -1.25946314673661   -0.29767371146730   -0.75586242115571
H          -0.59788798373100    0.90381109374042    0.79143843887270
H          -1.26286537177990    1.23002705654323   -1.02402955679608
O           1.32859824049459   -0.24245053002726   -2.77662224735058
H           0.87175614050649    0.52566949603785   -3.13481917725977
H           1.72150435232365    0.06676278703123   -1.94359436359421
H           0.23870052641868   -1.21836897061471   -2.02817474237489
O           0.45288832157591   -1.94477877534022    1.10204356093932
H          -0.38221623777839   -1.71303764190171    1.58520879381212
H           0.23214892628531   -1.89374335099885    0.15446748919029
H           1.45784938766454   -0.92904153137252    1.52723644986903
N          -1.79880012360713   -1.04199127260682    2.27940132268899
H          -2.39294732265491   -1.57342218191964    2.90261661003327
H          -2.37304597981189   -0.65951377010706    1.53735059998875
H          -1.41550352621253   -0.25726863335945    2.79339210740895
