    26
        -50.45054786  Gyration_radius:  2.51999356763 Dipole_moment: 7.520
 S          -0.39121925488727   -1.18536866889519   -0.61206404309684
O          -0.86856575155131   -1.14448933114417    0.73620708435083
O           1.07749541117220   -0.75320092901845   -0.70069373923122
O          -1.15308615167331   -0.36352179196252   -1.53264097591416
O          -0.35533974651760   -2.62252847337273   -1.11945430230483
H          -0.02310984804533   -2.52443049274998   -2.08939395098781
H          -1.40875068605326    1.14146421019052   -0.88935669157510
O          -1.39703147199684    2.02966006480703   -0.46493337689288
H          -1.84697313722539    2.62635662876589   -1.06577424770509
O           0.89766130526629    1.44917820360111    2.78096529855080
H           1.02809845224627    2.01960951228301    3.53891216166709
O           1.38995543543412   -1.37307102627718    2.43229653391377
H           0.58884671880034   -1.48721744793591    1.90922942488955
H           1.40892900771155   -0.43960017149969    2.67632106371821
O           1.24776852589517    1.61120632334787    0.13022433512372
H           1.29975347112674    1.57008503411939    1.10980137702100
H           1.23036267096568    0.21478627258012   -0.34247388290077
H           0.35702393842451    1.95140789592012   -0.07259554999071
O          -1.63987434283265    1.06548417972241    2.15801448294876
H          -1.54185179215574    0.15218533085226    1.84537943885370
H          -0.08056215685612    1.31869961475303    2.68046298921879
H          -1.74600737472760    1.58949763545242    1.35110113499385
N           0.42314839461750   -1.87782421708342   -3.43154263951301
H           0.26922258671620   -2.31445158200266   -4.33064603432698
H           1.39311394614070   -1.60233100934381   -3.35240299266662
H          -0.15900814999632   -1.05158579515196   -3.34494290816400
