    26
        -50.44071520  Gyration_radius:  2.48824109417 Dipole_moment: 3.259
 S          -0.52960996469711   -0.40068210805712   -2.15056940163594
O          -1.43581256542166    0.63058686427389   -1.64097724138682
O          -0.62611217606258   -1.65844679918907   -1.45815506996965
O           0.82784345448674    0.11783573322403   -2.24310627392904
O          -1.00415452465456   -0.67450144275547   -3.63610920412203
H          -0.97155289340317    0.19077471284281   -4.03114394124532
H           1.41179755166862    0.99152103976902   -1.11630704152606
O           1.67471420196544    1.63393597893651   -0.38759276122423
H           2.16392313188322    2.33599671820270   -0.81959930265577
O          -0.30653624243096    0.78271956334747    2.71097692493990
H           0.00464832820731    1.47342286130606    3.29871542568903
O           1.38187322955418   -2.39076264081296    0.13110176299076
H           0.70978736456048   -2.10981280697339   -0.52271149127924
H           1.09905818564267   -3.25028465143053    0.44690062144766
O          -0.74934362125802    1.84180854326302    0.43164367692699
H           0.23421978454415    1.87867484120029    0.18790817028896
H          -1.16742113859965    1.29725430264557   -0.35592961058301
H          -0.81023122737511    1.26566459929741    1.29499850817762
O           1.87218259598707   -0.25617361939408    1.70010340749319
H           0.50077394778525    0.28076671633802    2.41603071387675
H           1.73413292854492   -1.09545663329667    1.21554951620117
H           2.08214092015299    0.38982853415839    1.01360373279679
N          -1.89208268572979   -0.57700929237509    0.91135159833254
H          -2.88359057147810   -0.44821111837499    0.75619510432209
H          -1.78813405394438   -1.15796214767002    1.73337950640500
H          -1.53251396995636   -1.09148774849925    0.11374267970650
