    26
        -50.44071534  Gyration_radius:  2.48828597169 Dipole_moment: 3.255
 S           0.13463930031306    1.10195514277903   -1.95798297523203
O          -1.27990159660598    0.97619505206891   -1.60086407601060
O           0.80585219385022   -0.15752423039202   -2.14225427323550
O           0.81282579835832    2.00085097827045   -1.03489233228933
O           0.14516213575703    1.82104769620654   -3.36864755258109
H          -0.35473226920829    2.61428913675781   -3.20488721158253
H           0.53262677749614    1.92605654000238    0.47815575303576
O          -1.07583926319794   -1.61080774999199    2.07426425308185
H          -1.37225495124481   -1.51143698083971    2.98070972575956
O           0.21547859658557    1.87742136485857    1.43210097069032
H           0.16989564012063    2.78382796656459    1.74071787174620
O           2.58476023985881   -0.92940678430050   -0.31635377473372
H           2.90451230141778   -1.76096810004124   -0.66969232751645
H           1.98038421277587   -0.56374325465490   -0.99382857669319
O           1.34988204606448   -0.62983243710723    2.05964583497045
H           1.85957198937844   -0.82146333229882    1.24628291296652
H           1.16480274413924    0.31692150012345    2.01386848784942
H          -0.10977412288675   -1.37133539986093    2.06726656410992
O          -1.82225330251079    0.45831779029529    0.78067482298136
H          -1.08630875697960    1.04079935821916    1.16447994785295
H          -1.67782915138881    0.54432563167560   -0.25045869785670
H          -1.59369312372608   -0.51621416256037    1.06198115582964
N          -1.13761283519202   -1.72928557275048   -0.67946290373935
H          -0.43499165316132   -1.31250940186022   -1.28179403225763
H          -1.93893847771914   -1.93688500225056   -1.26135876392029
H          -0.77626448230329   -2.61059576890102   -0.33767081323393
