    26
        -50.44071508  Gyration_radius:  2.48828609681 Dipole_moment: 3.261
 S           1.44194724949708   -1.64225736187970   -0.53989445491777
O           1.85918932116831   -1.12544474416281    0.73662056065145
O           1.45522134735697   -0.65026479132777   -1.61699634478574
O           0.16174133366646   -2.33497893157356   -0.50456636889011
O           2.52181776040401   -2.72282608108504   -0.95592351866437
H           2.22868524099096   -2.99203130484299   -1.82052019821935
H          -1.15568326584217   -1.55614885443622   -0.68206778330361
O          -1.18957296396683    2.57641444592111    0.06891685577949
H          -1.99623363116937    3.00328690423935   -0.22509823745423
O          -1.95533295550795   -0.98810587877451   -0.90740564664552
H          -2.51236532969478   -1.52908637835058   -1.46950777107315
O           0.02654791006504   -0.81165832682006    2.64372154546745
H           0.66969641174106   -1.01924417262551    1.93575104920314
H           0.54333121436630   -0.48203464278301    3.38055543074806
O          -0.47192262666918    0.93164394621039   -1.74631497256244
H          -1.16710069725857    0.24191573899854   -1.48298813047667
H          -0.47838225411927    1.64813664504401   -0.99331436300261
H           0.42472302915176    0.39879481524924   -1.68405354748856
O          -2.00096512594312    0.52418505725913    1.47567425280538
H          -1.46464950854019    1.87279600813542    0.71681442432790
H          -2.21333452089023   -0.10587606963409    0.77526574279515
H          -1.29817815728753    0.08596123792533    1.99747662680452
N           1.40953903827974    1.65769598402191    0.07478573957708
H           2.18509182553345    2.02533432303833   -0.46111275718531
H           1.68644408035036    0.73771980283094    0.40212620413931
H           1.28974529431496    2.25607264941067    0.88205564236948
