    26
        -50.46365451  Gyration_radius:  2.41665018504 Dipole_moment: 4.545
 S          -1.23380280652920   -1.11061892490655   -0.00187347824684
O          -2.44316675514538   -0.61088321072296    0.80628239387953
O          -0.01725233354666   -0.84463181188784    0.76141147219578
O          -1.19146092905756   -0.38576933926827   -1.27958564689506
O          -1.38691823378657   -2.54588808090366   -0.21781690654935
H           0.03086257523404   -2.95656527052250   -0.32063710443699
H          -1.01316226975804    1.20424562639273   -1.23207598515555
O           0.87196542578022    2.14325017911264    2.38895159894305
H           1.13239528733475    3.06472519713645    2.43216318079293
O          -0.82193083730236    2.17037941373834   -1.10405618799463
H          -1.28108813554148    2.62931668322312   -1.80861979868611
O           1.31705946802847   -0.91472654286917   -1.97058214634164
H           1.71183053670302   -0.18949027604603   -1.44768422472990
H           0.35206306322762   -0.73070757225302   -1.93535271479358
O           1.53619077725081    1.06904038704990   -0.07581732231592
H           0.97574241180392    0.35035569722101    0.30749132404077
H           0.90829598469229    1.66391715012889   -0.51204714138476
H           1.31843225084539    1.75953494130429    1.61132553946965
O          -1.68099801912568    1.74679988303867    1.46672666434266
H          -1.44327925800060    2.09453575693591    0.58845296972063
H          -2.20271971969756    0.31050547292331    1.15010549969762
H          -0.84861567858135    1.75801661035808    1.98033912528543
N           1.12170626311702   -2.96694916156368   -0.38109814942539
H           1.33856812984533   -2.18751275090931   -1.10141194393072
H           1.50317821158338   -3.87268838793439   -0.63519297100113
H           1.44610459053277   -2.64819166882847    0.53060197363874
