    26
        -50.46365453  Gyration_radius:  2.41728812222 Dipole_moment: 4.562
 S          -0.68849387871839   -1.43307187308392    0.47555637599439
O          -0.56193310390205   -2.50814216849606   -0.61696825726689
O          -1.11776683625822   -0.18213732803531   -0.14417379595926
O           0.62457165515972   -1.25229399345545    1.11030560279314
O          -1.68305665818439   -1.87958899627350    1.44591237283269
H          -2.18184722144925   -0.57756906163915    1.93965887200361
H           1.84049385185288   -0.75123743167605    0.19819150252643
O           2.50805859041955   -0.36464692222105   -0.42741762063662
H           3.35824640759815   -0.71856384045582   -0.16338441888367
O           0.19396154967463    1.30316348421136   -3.05621992721119
H           0.86504791875542    1.74625254975601   -3.57784788041675
O           0.19459309068253    1.08981594452126    2.28443671620967
H           0.40521798673006    1.62848219847873    1.49657406471533
H           0.47811691492826    0.18323730870763    2.03121613449893
O           0.82509121029566   -1.28120620852956   -2.39100081027281
H           0.40318560083882   -0.46059148881461   -2.71595688415282
H           1.57228809975861   -0.98329163872697   -1.84186058827792
H          -0.05909301246005   -2.08407856584580   -1.38665126109141
O           0.64494026620270    1.72185177688716   -0.35688303394598
H           1.47464350382168    1.22486918306053   -0.41332721821595
H           0.26082042386933    1.65773098316377   -2.14994984231981
H          -0.06077518927461    1.02992241234512   -0.33061374788868
N          -2.33361964527879    0.48726406270733    2.13283776749182
H          -2.96867089049581    0.67080837836806    2.90315515830315
H          -2.66497036023491    0.87789219912392    1.25211766175862
H          -1.32905025433325    0.85512903591679    2.30229307744202
