    26
        -50.44586461  Gyration_radius:  2.48348879177 Dipole_moment: 6.911
 S           0.94403323001555   -0.82223315261829   -0.31754215248156
O           1.30355672112756    0.49532701376329   -0.75328355249753
O          -0.50097895157203   -1.10552576652447   -0.47783489710930
O           1.29331604694407   -1.06124095821390    1.08821429990086
O           1.70162143235599   -1.86925874231728   -1.17759968965339
H           1.44383072633050   -2.72644125284986   -0.77491558631362
H           0.68286285975575    0.05442992283253    2.00651546527386
O          -1.89495719773433    2.58517363577378   -0.18755768507943
H          -2.38638512488140    3.31772316976232    0.18847635082538
O           0.12971766788501    0.71642324674172    2.51503293485607
H           0.16903516961206    0.44516316348103    3.43457282794650
O           0.54269355373757   -3.56023171000149    0.46524285180239
H          -0.35278816802998   -3.33132987368927    0.19671742932561
H           0.83767356399354   -2.83972727738085    1.04622391697220
O           0.59937537464988    2.72292440611243    0.52108346547824
H           0.98647569817434    2.03639888344638   -0.05804575242159
H          -0.92329880612529    2.76663055932147   -0.02947265623602
H           0.63448504853246    2.34573653913124    1.40829764233159
O          -1.88522208484800    0.34592214201152    0.94834151603889
H          -1.99949679475460    1.25006965085635    0.43161251847597
H          -1.35823160747952   -0.31307113662533    0.27570884273587
H          -1.20288283131851    0.52803252717343    1.67383997656306
N           0.16209223986569   -0.42567044645881   -3.34884417269299
H          -0.44018042798209   -0.79157533389616   -2.62060590704987
H           0.64222669348941    0.36625331950947   -2.93624082357167
H           0.87142596824694   -1.12990252940216   -3.51793716343960
