    26
        -50.44586422  Gyration_radius:  2.4837853666 Dipole_moment: 6.912
 S           0.13667129201042   -0.70238438665110    1.07592302068625
O           0.24853938950326   -1.24490984999176   -0.29796396320138
O          -0.98076123473973    0.18138306715755    1.23460265377498
O           1.41273763661807   -0.05603005703834    1.40635352187782
O          -0.03606444755958   -1.92002437079952    2.02309523019229
H           0.79100029672577   -2.43183174959660    1.89124849939284
H           1.59053679083731    1.27232102045364    0.59128572687981
O          -1.47776762660249    1.70915797705883   -2.28223429572923
H          -1.54337893859425    2.44110727569583   -2.89819460455690
O           1.67711453413913    2.01074885496308   -0.07952004691283
H           2.58702500999845    2.31096282763957   -0.02892689589873
O           2.33692544277577   -2.55438821517675    1.09139994619074
H           2.39652038863904   -1.59678105237081    1.24366147061826
H           2.04232475322110   -2.65842135009160    0.18103066208836
O           0.70931666274090    0.52042262388760   -1.94918776108131
H          -0.21438920229476    0.95063356029764   -2.19060441374401
H           1.16710127722290    1.18001779351399   -1.33255675055387
H           0.48577531998744   -0.31107257339349   -1.29760890807333
O          -1.12060577953760    2.59950336710143    0.13118533754163
H          -1.50794723225910    2.09398455007253   -1.35882389061600
H          -1.24212205089200    1.77647815332465    0.64535103458434
H          -0.17773051353386    2.79342444888464    0.19493703169823
N          -2.54874660566122   -2.19728295077756    0.35349467444052
H          -2.69451976167331   -1.24792179676663    0.67814144328079
H          -1.70236908167892   -2.17064810224596   -0.20314186836037
H          -2.33518633938804   -2.74844906512935    1.17705312540814
