    26
        -50.44586466  Gyration_radius:  2.48361587086 Dipole_moment: 6.910
 S          -0.14699112283595   -0.56432898219628   -1.15207699419906
O          -0.20907644490433   -1.27986950859267    0.14336994273649
O           0.94190933031237    0.36546787814871   -1.22155373619398
O          -1.44781386178922    0.08060893597467   -1.36911823781749
O           0.03369153718253   -1.64608701955181   -2.25072486818330
H          -0.77612642419628   -2.19447903791962   -2.16765367056216
H          -1.63877429595023    1.28830358479854   -0.38647560158072
O           1.49641348519845    1.45305080814217    2.44209738659107
H           1.56017659842511    2.10252980722266    3.14465695662121
O          -1.72678188356474    1.93245876893661    0.37511749607044
H          -2.64600114386797    2.20731231886173    0.38636894576138
O          -2.29681459779957   -2.46367669702641   -1.35568627077331
H          -1.97466978530682   -2.67164808541127   -0.47283868926016
H          -2.38700267062091   -1.49679174410504   -1.38394265425410
O           1.04649322847849    2.63075920580073    0.17183432321361
H           0.09717253698660    2.80168222435190    0.15666365107806
H           1.48939935812110    1.95261575331902    1.57475056792409
H           1.17625301334100    1.88279206447492   -0.44470500513836
O          -0.66599300571780    0.24945516856651    2.01662504296435
H          -1.15878198600584    0.96707172901893    1.49968543353879
H          -0.44016328784703   -0.48643843883168    1.26023632688165
H           0.25272530230614    0.67375916514455    2.28686191844255
N           2.59273514788901   -2.05867496149475   -0.68583784298010
H           2.68679684471738   -1.07137574817840   -0.89611105336774
H           1.76471939004474   -2.13856137110171   -0.10719230321764
H           2.37650475741138   -2.51593582842208   -1.56435107429509
