    26
        -50.46357504  Gyration_radius:  2.63943844811 Dipole_moment: 1.777
 S           0.38615719748704    1.62740410225713    0.55108066995209
O           0.82938179860495    0.99636441723518    1.78880467063513
O          -0.96065115389304    1.21188681877727    0.20001040037708
O           1.34004432207048    1.39099000514108   -0.53435312497866
O           0.32871071777898    3.17161985132325    0.78663496839689
H           1.26416220520811    3.45917785003479    0.78144025955170
H           1.31229172639474   -0.18641881059343   -0.92703355925180
O          -2.52154552601267   -2.36743259638616   -0.88352899152490
H          -2.94072881565068   -2.88929963819072   -1.56813258357711
O           1.26553888304965   -1.13533451895149   -1.19859460728511
H           2.15767169136809   -1.38203255588282   -1.44794755064962
O           2.90671266715361    3.37328348338520    0.20351433685070
H           3.09415087349609    3.93627382368915   -0.55107729526365
H           2.57472202388699    2.52684452330204   -0.15745690503485
O          -0.23500967351239   -2.75669511459256    0.42592092642746
H           0.38021578008091   -2.27324974869616   -0.15800110889873
H          -0.67869319903713   -1.67545139411463    1.40847135902453
H          -1.07581782315241   -2.82075341649362   -0.07939320702172
O          -1.31850113098074   -0.29273267620290   -1.99863022837612
H          -2.17936090187776   -1.55185243080968   -1.33134293869282
H          -1.28065933608973    0.38486642814063   -1.29709801395868
H          -0.41412424386944   -0.62633964688676   -2.06454384973185
N          -1.00576261057708   -0.78132603503158    1.92590482964788
H          -1.53947077744053   -0.20086149043701    1.25970830898482
H          -0.15954712243412   -0.15263306081658    2.09638851466293
H          -1.52988757203459   -0.98629814910406    2.76925470977201
