    26
        -50.46357511  Gyration_radius:  2.63941076641 Dipole_moment: 1.777
 S          -1.41173186867810   -1.01300149386358   -0.28512510891263
O          -0.52469169923338   -2.14543930393021   -0.04545348453562
O          -0.86547584794765   -0.11877669939536   -1.29103369168592
O          -1.72888255261130   -0.31603442140870    0.96289924570522
O          -2.75673673881940   -1.56283150671643   -0.86126693194461
H          -3.21430931618514   -1.95773415509462   -0.09153069415411
H          -0.38541388185909    0.41418266071479    1.51529644594514
O           2.42382911166991    2.24678224586690   -1.34916044179817
H           2.77574850642392    3.13659514502817   -1.38227586189795
O           0.41765769340755    0.89607989220834    1.83023500249827
H           0.38736457270836    0.86066316545615    2.78771292333997
O          -3.65030837663412   -2.00000470177541    1.59586041918668
H          -4.44867255989324   -1.51362429683488    1.81400735740792
H          -2.91264269523318   -1.35953436309496    1.64608943878387
O           2.73722648379141    0.33569363991830    0.47939444389969
H           1.98015436422955    0.53291007972777    1.06342725310588
H           2.13576754441972   -0.64573596042898   -0.52368325266250
H           2.80632821670816    1.10779155661609   -0.12521064030833
O          -0.09489882949641    2.34707572556896   -0.54843111698237
H          -0.50835416891948    1.54171912528305   -0.91341320791401
H           0.01114935107282    2.16124818438084    0.39376580484404
H           1.45708845231054    2.34147225194858   -1.15104098056901
N           1.53687671409682   -1.20446531205648   -1.23317938300661
H           0.83720744040833   -1.80586995776045   -0.69540371132710
H           2.09977502356298   -1.73366104643115   -1.88972490975828
H           0.89594507070889   -0.54550045394390   -1.70275492721457
