    26
        -50.46357511  Gyration_radius:  2.63949870056 Dipole_moment: 1.777
 S           0.23199481405455   -1.74528666260957    0.02673349975355
O           1.29083983289584   -1.52063384530826   -0.95054509837507
O          -1.01127892983045   -1.12006054787693   -0.38943782487034
O           0.64700010129363   -1.31782427953011    1.36425971524798
O          -0.04479008807254   -3.28201626060338    0.09859433720550
H           0.71069964231052   -3.64774884175344    0.60187501142245
H           0.78696251413317    0.30183972387599    1.38067713678784
O          -2.08840408487724    2.75398522858231   -0.89497321107793
H          -2.64068351257546    3.48085231746115   -0.60625513797812
O           0.82959970050073    1.28868710130439    1.40659162425466
H           1.55488747930544    1.50558610411107    1.99467547605842
O           1.91586206055860   -3.57023318957151    1.85922279325621
H           1.64922705662064   -2.62913445746257    1.84689611265473
H           1.63222525232890   -3.92258052637873    2.70594014117431
O           0.56426773901833    2.54624370122467   -1.01573345686583
H           0.37243903374640    1.28788176725167   -1.85877205815297
H          -0.37753387782198    2.82707881242419   -0.99163704275848
H           0.74707816946837    2.18179271931881   -0.12864823811913
O          -1.95890056806893    0.95204882723826    1.03668781204682
H          -1.76530203931021    0.10927419339043    0.58389277884839
H          -1.12465023547398    1.20103234409374    1.45566477415741
H          -2.15625743075210    2.06105089966600   -0.18919744615637
N           0.12061601677183    0.32326985087693   -2.28351028506519
H          -0.75851665280132    0.00020639637922   -1.84945230833222
H           0.80250823949304   -0.40749968978856   -1.90759968627501
H           0.07010976704595    0.34218831365165   -3.29594939886606
