    26
        -50.46357510  Gyration_radius:  2.6394986666 Dipole_moment: 1.777
 S           0.98480189430572   -1.43610425838093   -0.26245319661810
O           0.11486630063978   -1.70386038624108   -1.40186205446470
O           0.21446614609284   -1.21776085099406    0.94945847270399
O           1.90039672346824   -0.32884756747479   -0.54454024624240
O           1.86040921253463   -2.70623338347081   -0.01065294029565
H           2.53026577048533   -2.69213008412854   -0.72404205022076
H           1.04485701326389    1.04951292082095   -0.65090746174509
O           0.53401671261673    1.89509677972480   -0.67167031291811
H           0.95712094240760    2.44207503738555   -1.33557002116887
O          -2.38260546221667    1.69236157551261    2.05091410392018
H          -2.57182544940524    2.42174737352232    2.64162336104061
O           3.62104286804603   -1.86948666864782   -1.80706458834879
H           3.08246548660853   -1.10349859721960   -1.52403295019161
H           4.50239094341867   -1.72810372789337   -1.45375352218195
O           0.22114303024173    1.22831902944246    2.06388348506459
H          -1.42019993868139    1.48607631249180    2.16959430305977
H           0.31220544887486    0.28936352697136    1.81318399231850
H           0.49247788936806    1.71835795336367    1.27664410481763
O          -2.19431598514880    1.62854383547092   -0.60525010368903
H          -2.38922392945301    1.81519334612069    0.34004924269788
H          -1.24155778061162    1.81251606866746   -0.71296983536307
H          -2.23035969811418    0.10480074170415   -0.51594663433653
N          -2.07951322636669   -0.95081103339677   -0.32309782254616
H          -2.94097662249751   -1.48370996787970   -0.36586989248846
H          -1.59972354251530   -1.04656106352813    0.58587355874512
H          -1.32262473735339   -1.31685692196191   -0.98154099156766
