    26
        -50.46357513  Gyration_radius:  2.63947928065 Dipole_moment: 1.777
 S           1.73584678029535    0.18215329757808    0.23332376542479
O           1.14306802418078   -0.15978029734025   -1.04793148934725
O           1.62440359947709   -0.92168253781594    1.17977298675872
O           1.17770708827328    1.41558538550565    0.79102777459570
O           3.25397852855838    0.44193272885315   -0.03343746163851
H           3.57419441909470    0.89598876637241    0.77220250021300
H          -0.43335390574928    1.24854505762064    0.93239747607095
O          -1.41706569689262    1.16729803323601    0.97774497339095
H          -1.68500761526739    1.64747063986854    1.76297265873511
O          -2.67013319124552   -0.94411094798216   -2.17346438885904
H          -3.42894797850579   -0.67418112442545   -2.69121077491696
O           3.38093459818752    2.00067652475497    2.10693205272817
H           2.44325361856316    1.91990606850887    1.84014207285494
H           3.64114714259244    2.90499229485573    1.91705115383032
O          -1.07539474893737    1.13850768795991   -1.83459153784711
H          -2.05431409765871   -0.16726811464973   -2.16407615568467
H          -1.35669128379054    1.43662898231558   -0.95966204589059
H          -0.18836408066496    0.75714624481003   -1.69151887573396
O          -2.42213505554904   -1.32898972005758    0.45035949894336
H          -2.71436199736936   -1.23223732094835   -0.48328829914090
H          -1.08577981034153   -2.01135795369418    0.16796047101312
H          -2.14876888394942   -0.43402398506425    0.72870643953633
N          -0.08546845852502   -2.30416922448738   -0.12836838229012
H          -0.00033567840964   -3.30182142559468   -0.28768564551738
H           0.61029364872382   -1.92999478673710    0.59016214330306
H           0.18129503487999   -1.74721428345131   -0.95552092055255
