    26
        -50.45038886  Gyration_radius:  2.64379836248 Dipole_moment: 6.843
 S          -0.25110238875800   -1.55670282338662   -0.40137443484671
O          -1.57265909686131   -0.79904545165628   -0.19159980692955
O           0.57430459864741   -1.47514189846907    0.75882885486859
O           0.36445122417814   -1.06261962285265   -1.61826779791073
O          -0.72870463743494   -2.99533907770762   -0.61851837400450
H          -1.25434376681025   -2.93980597984459   -1.49498517288839
H           1.13350763074078    0.37430093244672   -1.32148292409861
O           1.41132913280185    1.29957534872090   -1.13489190347475
H           1.87680994756116    1.60733699513433   -1.91495560166084
O          -0.43581490718264    1.95674754727682    2.53159753113494
H          -1.15982246133131    1.87392696855191    3.15268375864393
O           2.53878836677703    1.90281037815450    1.36262963672023
H           1.89439929475787    2.54070368571018    1.68146828226326
H           2.23716049847226    1.63328848233972    0.48134719792837
O           1.29021954284778    0.02799867789915    2.91620549782045
H           1.05138318196666   -0.65001573753752    2.26502219279881
H           2.02454980245677    0.52226695892279    2.50819329802984
H           0.19621295443759    1.21120098187291    2.74338090436240
O          -1.05437650303139    1.63603327969314   -0.00276905864017
H          -1.41071922686138    0.23834472087435   -0.10366825023887
H          -0.87356885594707    1.80823020091316    0.95983510078169
H          -0.19127291159981    1.70879029992158   -0.44792449553978
N          -1.86059003051146   -2.37050690638346   -2.83076145700983
H          -1.96850177872145   -2.92643059148585   -3.66865298996307
H          -1.11165737802737   -1.69721013881498   -2.96070147193432
H          -2.71998225256806   -1.86873720027555   -2.65063852619823
