    26
        -50.45234084  Gyration_radius:  2.458839333 Dipole_moment: 5.679
 S           0.50330381419245    1.65132957508010    1.33464172406947
O          -0.35708249087493    1.12650095388538    2.47950730117320
O           1.53076582362787    0.51327583432168    1.07659733676352
O          -0.31435275244726    1.75832762301395    0.13598290687621
O           1.18383666921187    2.83310707138048    1.71514414921120
O          -1.65710247565146   -1.15253308049248   -1.08054684414770
H          -2.30903049471516   -1.76049928097616   -1.43120093866858
O           0.88246294748141    1.73347872973008   -2.21734364307790
H           1.62065589799850    2.34229180127641   -2.26279029491445
H           0.45707074816952    1.87999595805245   -1.34395678989117
O          -2.09956703611389    1.32742421933181   -1.83399339058251
H          -1.70790039447666    1.67334594149199   -1.01493496817592
H          -1.46056025155992    1.53872024142287   -2.52249673529828
H          -1.91430601938253   -0.24364203782460   -1.38911837624921
O           1.04029628959075   -0.73889450972060   -1.10518983448065
H           0.10078274625160   -1.00096540097367   -1.11128221000267
H           1.09885973436825    0.01979815572574   -1.71762873368742
H           1.32210641138414   -0.00939412604800    0.23012401484006
O          -1.16613530619804   -1.09683959834885    1.62486253502805
H          -0.75661718024973    0.23025856290062    2.16689132573723
H          -1.43494016699709   -1.06319258734000    0.68900649625101
H          -0.34889987865611   -1.65902700614536    1.64957875121374
N           1.18478095857067   -2.41288272800260    1.51435971090974
H           1.43262203403325   -2.47066197911462    0.53355160627328
H           1.38185066784373   -3.30575362634304    1.94765093487178
H           1.78709969458858   -1.71356872627256    1.93258397596090
