    26
        -50.43635101  Gyration_radius:  2.436962606 Dipole_moment: 2.540
 S           0.61902252378661   -1.30594368047706   -1.05523743345774
O           1.33564860549356   -0.09031552317133   -0.78185134811342
O          -0.66712626856927   -1.53535607083030   -0.47037965092310
O           1.55447653927448   -2.44126720056390   -0.43175181156072
O           0.77502572558294   -1.85365083254240   -2.53377080252864
H           1.30729184123767   -2.65243699623690   -2.48850732502557
H           1.80452503018971   -2.16483678994870    0.49042024096805
O          -1.70034926784030    2.16313876971828   -0.46473504109252
H          -2.08917041427877    3.03746593729002   -0.41333211126783
O          -0.02248494732967    0.28373209989838    2.66762773697987
H          -0.26731284141625    0.21427641034688    3.59147874566156
O           2.10997140493971   -1.16522579250381    1.78887572028135
H           1.30286362736575   -0.74461553930446    2.15131518226635
H           2.54946014123802   -0.47108456088765    1.28949434088583
O           0.67689698649643    2.09375547446887    0.66782999348732
H           0.51491750831802    1.63213457842018    1.50567299324423
H           1.02091736743900    1.40722027966418    0.06992406432665
H          -0.79903875779700    2.23317078839696   -0.05099026566449
O          -2.14597380709835   -0.01747129062036    1.18014912265283
H          -2.17904208762509    0.77844705567390    0.62105242956850
H          -1.77019832221672   -0.70138584375673    0.59942405700114
H          -0.86205112534826    0.13415322219954    2.14390773692352
N          -0.62283494435499    0.12803649739146   -2.37805261096628
H          -1.07008475556690    0.81928357872850   -1.78007082091958
H          -1.33899248662760   -0.38760569561470   -2.87050492028310
H          -0.03635726529605    0.60638112426057   -3.04798819244686
