    26
        -50.45038888  Gyration_radius:  2.64367467975 Dipole_moment: 6.843
 S          -0.57252893559125   -0.85741535366024   -1.25953846175996
O           0.47745442865912    0.17627069563405   -1.69946817172417
O          -1.64809573790739   -0.22927157583513   -0.56473710570825
O           0.10504873597091   -1.89923301991794   -0.51157758926711
O          -1.05714170338730   -1.42262088902543   -2.59770607670336
H          -0.22664071953123   -1.88998987217323   -2.97121078715149
H           0.38529176581770   -1.39318207778934    1.04069673137425
O          -0.05901619135311    3.03499875098763    1.10027411641382
H          -0.08062134288462    3.80880957226264    0.53675424161074
O           0.68627688603795   -0.97974290618896    1.88128004703220
H           1.07834602623317   -1.68092300281738    2.40527729694355
O          -1.01802614724605    0.82072359039022    3.19554748800504
H          -0.50319686722892    0.12171964366048    2.76361725670418
H          -0.46968698846700    1.60974801133815    3.17087208592974
O           1.56151706930483    1.10733623771733    0.34782413819564
H           1.00592824060950    1.88291348765609    0.62843448059011
H           1.39872456190730    0.41487853312391    1.01302411841240
H           0.96671118735656    0.60359815600966   -0.86983749885941
O          -2.38459099736768    1.83623580653107    1.05307098595780
H          -2.28544735667281    1.13060769875926    0.39499608577656
H          -2.24494820780071    1.40037538329495    1.91356653504770
H          -0.97567457804627    2.63741792178136    1.05814867518269
N           1.22680298619627   -2.48502285260675   -3.06698127666556
H           1.43945672916094   -3.34617483314563   -3.55271920402880
H           1.30487240295337   -2.62896120816796   -2.06485585334651
H           1.88918475327502   -1.77309588782252   -3.34475226797388
