    26
        -50.45825240  Gyration_radius:  2.5851442687 Dipole_moment: 3.124
 S           1.40108196658446   -0.21903541334494   -1.81016326429031
O           2.64449991272616    0.04505141181406   -1.09647555665508
O           0.39283750649276    0.78867081292094   -1.51990462089333
O           0.93625838027471   -1.57722517563217   -1.63420591528990
O           1.71929888333921   -0.05558843126882   -3.35822874825822
H           2.19803989111502   -0.84848150722830   -3.58131442244265
H           0.43206428176230   -1.82566072343709   -0.12994948525848
O          -1.83563748211094    1.15355205206553    2.12313959287357
H          -2.50208490005534    1.16244242486032    2.81093267934302
O           0.13417176636943   -1.98669091041519    0.80126436189423
H           0.29333416866708   -2.91732506083180    0.96746245135334
O          -2.11326184882058    0.01767249838619   -1.99906783421970
H          -2.54511337949405    0.83086412351375   -2.26599750552273
H          -1.16638776138711    0.23776917706222   -1.88754510231834
O           0.56001263974865    0.10046132308708    2.52006707194040
H          -0.34153441312819    0.50644921766225    2.51600344718625
H           0.46155859579052   -0.73184750578684    2.02058019528599
H           1.23179141764362    1.00237454200899    1.52283707570594
O          -2.40812703991421   -0.86353892227236    0.55047528928366
H          -2.43114758409055   -0.60196964329018   -0.39127148051087
H          -1.59460846958122   -1.38469003698360    0.64444798794270
H          -2.11852268896823    0.44239136776835    1.48450510208674
N           1.59103477036095    1.58169090055341    0.67154164417580
H           0.81881320000520    1.66239026917847   -0.01324473095881
H           2.27498996863047    0.99677360786552    0.11123935924363
H           1.96663823800942    2.48349959178571    0.94287240822502
