    26
        -50.45825249  Gyration_radius:  2.58528075064 Dipole_moment: 3.130
 S          -0.92636234957887   -2.01366408816274   -0.61328107588626
O           0.34112657458933   -1.40937771575763   -0.99359575247510
O          -2.03540608144658   -1.46332015406006   -1.38294916358582
O          -1.17605536765018   -1.99831633874949    0.81116029725979
O          -0.79883158216479   -3.54274080593822   -1.02563893839956
H          -1.52629679275714   -3.96479676469129   -0.57804711139451
H          -1.17355115537478   -0.49762400395615    1.38282582731130
O           1.66017567206882    2.54085148256059    0.02700881435425
H           2.09374355966536    3.31401778340637    0.38967103658773
O          -1.18753569031567    0.42795862075973    1.73623140337987
H          -1.78347340690882    0.41012312856538    2.48695249665768
O           2.26343768598998   -1.62142612609292    0.84055533566874
H           3.06256293990669   -1.67913822832196    0.31417534722816
H           1.51963363907031   -1.62084485842566    0.20479891399383
O           1.57567244425722    0.75884219950215    1.94720872642794
H           1.91480526130554   -0.11114997467896    1.65743757491115
H           1.71856180992531    1.84296671138800    0.73633154188269
H           0.61535326791696    0.63930179533424    2.02261124370896
O          -0.97509527532612    2.38591163203530   -0.16463668495485
H          -1.16083080628830    1.77539452791786    0.57337491393549
H          -0.00988401549525    2.58712890119386   -0.09035405379865
H          -0.93595963809700    1.46300090276817   -1.35009088448620
N          -0.80361090272081    0.67572348362581   -2.09320163689979
H           0.04739938497242    0.13971973674669   -1.84782209620635
H          -0.77824890078927    1.03326211510947   -3.04161274409122
H          -1.54133026440676   -0.07180396197389   -1.94911333145043
