    26
        -50.45996606  Gyration_radius:  2.46157152184 Dipole_moment: 6.432
 S           1.31369385288122    1.60130606365202   -0.21110010601788
O           0.44399861066787    1.96824790138295    0.88423833982126
O           0.56555031889596    1.19685278507503   -1.40055353251338
O           2.32413142557233    0.62182641094037    0.13803244625695
O           2.09516217949438    2.91385166566199   -0.61987109766204
H           2.78761519261624    2.55429366299496   -1.16289021921112
H           1.89785845674693   -0.68123874121588    0.96893365230655
O           1.59069922970031   -1.46564503726800    1.49251820974892
H           2.21882593345725   -1.55979861102807    2.21050574172096
O          -2.59129650094824    0.01086224605317    0.04208351946766
H          -2.52369036957074    0.98345825680411   -0.12754617480520
O          -1.76905998692977    2.46987827033667   -0.51324084797506
H          -1.35555961290401    2.38156380812607   -1.37714590178230
H          -1.02103166118060    2.45187357299728    0.11433944623130
O          -0.97454938511576   -0.79978889074904   -1.64016070215635
H          -1.76288162952523   -0.49292161655586   -0.94447128604337
H          -0.31258165963456   -0.03117944539303   -1.60726644156822
H          -0.51196178907026   -1.64724517352950   -1.21089979459904
O          -0.79827167113976   -0.15783110804871    1.96966329657367
H          -0.06362198453977   -0.78985309658258    1.92342168831826
H          -0.39293322547451    0.70353928576871    1.76166922043048
H          -2.06854206560421   -0.13303391450988    0.87052259522531
N           0.10970684725181   -2.82850013545019   -0.52833272425850
H           0.68363965529107   -3.39125889279103   -1.14243695028072
H          -0.58790341104271   -3.42566148963086   -0.10272938241529
H           0.70300323011292   -2.45359776703895    0.21271700515872
