    26
        -50.45996636  Gyration_radius:  2.46183124719 Dipole_moment: 6.421
 S           0.31391313824170   -1.79201639924088    1.01676045431210
O          -0.86760341841020   -1.70712175560391    0.15922232720946
O           0.32113073527543   -0.77228187646651    2.04191821457622
O           1.53290082655504   -1.85382089301607    0.23439399919747
O           0.20075016995003   -3.17886634425462    1.76793610381712
H           0.42329444865572   -3.78497541422728    1.07031460566901
H           2.15745849349954   -0.49747398351650   -0.34930725031833
O           2.51398915483375    0.36765588548939   -0.67817400185816
H           3.45028970397147    0.35668907233055   -0.47297639265324
O          -1.78168068667514    1.83217627469722    0.43870920895710
H          -2.12620333624019    1.23226250410189    1.14637271842597
O          -2.28293523718847   -0.20735838117235    2.05752025485370
H          -2.53411909402965   -0.91563115670498    1.45721223902474
H          -1.34489087560247   -0.38660022017552    2.26161775938194
O           0.78396485608048    1.67925738954753    1.03523128932523
H           0.68039633860299    0.87796473734871    1.58009501908405
H           1.44841440060547    1.43753494289457    0.37093813479739
H          -0.83137139344484    1.97520177004891    0.67630103520888
O          -1.52390608203611    0.18857697370977   -1.38715744695212
H          -1.26173487056889   -0.62121297631506   -0.83441223480754
H          -1.70682435819257    0.96516069045789   -0.63731430439417
H          -0.67459414395821    0.49819336213484   -1.93457029987151
N           0.54800852238302    0.99131261451739   -2.64776586255738
H           0.70435616362622    0.53938705495353   -3.53914193879499
H           1.34013241533625    0.78382549890014   -2.03847496020621
H           0.51686412868923    1.99216060956676   -2.79524868142220
