    26
        -50.45996629  Gyration_radius:  2.46174672208 Dipole_moment: 6.418
 S           1.73236146938948    1.05323509394679   -0.48141188182532
O           0.68007921490147    2.04492005563702   -0.47159223634116
O           1.39903060202261   -0.10012625484472   -1.31631120332256
O           2.17143271651228    0.64280163220006    0.83797242922738
O           2.98175421266638    1.73555173019216   -1.16980886358143
H           3.67406919563798    1.12577283963878   -0.94071451516336
H           1.07676794588378    0.26805318571196    1.94784809735399
O          -2.26607513649482   -0.07043868218450   -1.25799551446463
H          -1.83216714185384    0.50881046143326   -1.93309597151206
O           0.36437765495151    0.05828601581019    2.60528049469714
H           0.61095698489293    0.51746451120269    3.40978078722929
O          -0.55705908768732    1.33201835723432   -2.72168902270745
H           0.10085915901813    0.68163726706575   -2.98500323372263
H          -0.15041236284377    1.79087920380384   -1.96163953506598
O          -0.48514427474285   -1.75873061153654   -0.97649789661887
H          -0.51761590160796   -2.04271533042842    0.04088131612319
H          -1.33479452404617   -1.08642541161541   -1.13539726625594
H           0.32289947951396   -1.15915204602479   -1.10871478371279
O          -1.48028539386230    1.22188508660065    0.90407233311614
H          -2.16831380622012    0.42529246505601   -0.40673348309287
H          -1.02383836190192    0.77085449438215    1.63162217792980
H          -0.77679393041980    1.71111332623028    0.43992005019438
N          -0.61678417596097   -2.37975845388987    1.49808772951063
H          -1.57713973368206   -2.52281611387386    1.78401546279293
H          -0.25018514405454   -1.57390588065714    2.00604820527756
H          -0.07797964994545   -3.19450694110022    1.76107634393606
