    26
        -50.43882608  Gyration_radius:  2.42428803677 Dipole_moment: 5.179
 S           1.35153663757777    1.03301503862504   -1.19192930580977
O           0.72854820915421    1.70594310608590   -0.04863964424428
O           0.49770308518622    0.03262454985597   -1.78296575785734
O           2.66130079975546    0.51188773124878   -0.82468172520732
O           1.58579114578985    2.14820633845277   -2.27752317478302
H           2.11695854124568    2.78969945833306   -1.81637912989936
H           2.45385070291075   -0.63887367964015    0.17933655636490
O          -1.62795126660388   -1.57759907058605    0.68336021847080
H          -2.01883528738997   -2.25206063459583    1.23963298183774
O           2.20614745031918   -1.30972718749881    0.88795170740955
H           2.96953740531935   -1.37736321049560    1.46517381095723
O          -2.20449378916590    0.38659548383870   -1.40341561996794
H          -1.27626980605515    0.35307670377015   -1.68081336549553
H          -2.34351466606534   -0.40876861184618   -0.87873082391472
O           0.13340143078544    0.00219702267435    1.65340451491839
H           0.92888400847300   -0.59899227036315    1.46173009013688
H           0.26398571980287    0.81807360001763    1.00228898165116
H          -0.71797233509289   -0.47450923556626    1.34038864751526
O           0.29705750971394   -2.46154369295045   -0.83441807410336
H           1.10015819301277   -2.45736789828630   -0.29974935994248
H          -0.97520269654562   -2.02434886062498    0.07375536683133
H           0.35879659913410   -1.65808231513467   -1.38755651863379
N          -2.02065688987431    1.64946006868347    1.26983821242237
H          -1.36465771027526    2.41895549924985    1.20184404111338
H          -2.87970011308943    2.02230975628768    1.65576935676096
H          -2.22440286802935    1.36719231046251    0.31232799346797
