    26
        -50.45234081  Gyration_radius:  2.4587169414 Dipole_moment: 5.677
 S           1.62318501230005    0.77342256151232    1.23625911311231
O           0.96942312001886    1.49763123255033    0.15693268990646
O           0.55549642580928   -0.17485897671145    1.85120195109592
O           2.66507269043078   -0.16986259746094    0.64392934177075
O           2.19076980167362    1.57826215848927    2.25340177877356
O          -0.78303367159931   -0.37422234919961   -2.11884318360405
H          -1.09304113842631   -0.69271958723616   -2.96738219247042
O          -1.43002007322438    2.51165119573733    0.58859382533653
H          -0.48836563836072    2.25445513919053    0.47769716541978
H          -1.47802791919549    3.01219224676279    1.40396118238133
O          -1.60760532975095   -0.19570920853366    0.47656293860215
H          -1.38251508464108   -0.35403134749600   -0.45920907140729
H          -0.29251345152859   -0.21395718206897    1.29217521605365
H          -1.81716928945434    0.75673450332243    0.53232475666462
O          -0.20019046742628    2.18926955108906   -2.16801297404134
H          -0.56238273943082    0.58774456363988   -2.23455049674436
H          -0.91459290049677    2.65714721908131   -1.72333383068191
H           0.48350498805469    2.07271208414170   -1.48760027393851
O           1.30976337004995   -1.65034011450931   -0.87240499741668
H           2.17201032252520   -0.77654615758269   -0.02648557429892
H           0.79638144546272   -2.21421004919222   -0.23759171698578
H           0.64400500264947   -1.15501267947931   -1.38302833560610
N          -0.19155530448035   -2.92148089353599    0.97200994535045
H          -0.28241076631281   -3.92440490614511    1.07070229054827
H          -1.11971075747760   -2.52022605123079    0.90747737543352
H           0.23352234283174   -2.55364036513447    1.81521307674806
