    26
        -50.46309548  Gyration_radius:  2.39393453785 Dipole_moment: 2.608
 S          -0.87911867524457   -1.28707984953063   -0.12135369821258
O           0.33741684985822   -1.15156802815006   -0.91996709866496
O          -1.38677332278458    0.05710735191338    0.21444039733964
O          -0.67277964067824   -2.07390066865173    1.07379989101421
O          -1.95725878060178   -1.98091530005284   -0.98528422150826
H          -1.91307202879810   -1.45979371212398   -1.83757065387149
H           0.50203780769383   -1.60068279590043    2.02627156654216
O           1.39600171252535    2.03650397069651    0.59402812507120
H           0.76383661850745    1.77993497473244    1.39865949054194
O           1.22422363743110   -1.19549050560901    2.58088284413166
H           1.43435695031065   -1.84420298145460    3.25417378888039
O          -0.19240772882632    1.11638011863138    2.30177131950821
H          -0.79957737260416    0.71126157431256    1.63651190047338
H           0.29542739520527    0.36568549984865    2.68539774311468
O           2.39636511060650   -0.21975560813756    0.33243059762311
H           1.70184244706731   -0.63561289506580   -0.24594826755889
H           1.94022030946223    1.11424270746421    0.43411555043664
H           2.24379474156103   -0.61503024004816    1.21187999692651
O          -0.49626398672732    2.03775999050652   -1.14304170858937
H          -0.87987285219355    1.22254864715420   -0.70760723035371
H          -1.11729259297267    2.74654327881637   -0.96158297826691
H           0.75755039223339    2.12612348560235   -0.19441165921389
N          -1.35284687148375   -0.45920042323944   -3.02037986276257
H          -1.31132565290384   -0.77203131547053   -3.98161951605792
H          -0.42478835601956   -0.53832079269861   -2.60986014742149
H          -1.60969611058724    0.51949351633142   -3.01573615919601
