    26
        -50.46309542  Gyration_radius:  2.39389583346 Dipole_moment: 2.605
 S           1.38228378626131   -0.21482245278712   -0.69864858435125
O           0.76400836510290   -1.14839588543603    0.26230963668186
O           0.90079430805952    1.13791290457372   -0.42640263290217
O           1.12653929877718   -0.63087329146568   -2.05940870095654
O           2.90836643346740   -0.25008283634959   -0.45366760509339
H           2.98997023450273    0.19374967506880    0.43861704437374
H          -0.37666296193588   -0.52481109147584   -2.55014261355668
O          -1.35242036428382   -0.46998890930672   -2.74544552690753
H          -1.43786792834956   -0.58243853930775   -3.69327822024078
O          -2.38545971693701    0.08401929924106    0.86683789369071
H          -2.21530337195835   -0.82113335135738    0.35180159667923
O          -1.64515375208185   -1.91478891056153   -0.45288355816055
H          -1.71068334607686   -1.61453534139954   -1.37713776538652
H          -0.69036111597953   -1.81499572458559   -0.22051524197307
O          -0.31164919725674   -0.15534787199584    2.36357334607922
H           0.20223903687611   -0.49690609587018    1.57576694293825
H          -1.63957683993786    0.11010801265009    1.55980129445364
H          -0.40940783702370   -0.90474271723491    2.95504876842702
O          -1.59147036946077    1.56421551958552   -0.96055705379741
H          -0.61597791921250    1.54806923461507   -0.76632237247888
H          -1.68895177217306    0.99149102094261   -1.74509975933140
H          -2.12320913276489    0.82024792577489    0.11785468111588
N           2.61544113328886    1.09598967240665    1.76576373199734
H           2.20683203339504    0.65187255153682    2.57791343745121
H           1.85974594857271    1.51865749444851    1.23062888909463
H           3.23793505713352    1.82752969830772    2.08359238210727
