    26
        -50.46309534  Gyration_radius:  2.39401658078 Dipole_moment: 2.608
 S          -1.45412750186225    0.56629395295152   -0.09999700927560
O          -1.19893899129039   -0.84587082122976   -0.37671535695133
O          -0.22233384804498    1.33732179579367   -0.35573646808255
O          -1.93234492873662    0.78973558830531    1.24593070317296
O          -2.52586066411839    1.07381643227137   -1.09185357174896
H          -2.18037346613409    0.73707011287774   -1.96769324329159
H          -1.02948333250991    0.20891578515741    2.41145798430968
O           2.37690833539482   -0.73091971280905    0.51571436238073
H           2.13965231179146    0.14550404738612    1.05352057561017
O          -0.37141102266993   -0.14654146314099    3.07021306635372
H          -0.81388907276844   -0.12906794909929    3.92007153043752
O           1.45903627394287    1.30042123000204    1.66296740992806
H           0.80675518014185    1.50634850831904    0.95052632737964
H           0.92678658388732    0.92995196840288    2.38981123555466
O           0.40140698326537   -2.03015731441114    1.27070921000421
H           1.59045739778740   -1.40552907187937    0.82913192696645
H           0.15583132384563   -1.56933708907449    2.09543551267625
H          -0.26463918528927   -1.71050469871667    0.60443598811170
O           1.61581982807602    0.22054613960510   -1.74568765485206
H           2.18388374663142    0.94675856910916   -2.01198059993136
H           2.16726002682065   -0.48464985449377   -0.45005768060725
H           0.83177765500222    0.64282828327587   -1.28922552755298
N          -1.32077917323531   -0.13970805425683   -3.06617742051994
H          -1.79008257565999   -0.62654933376461   -3.81879085989730
H          -1.10816612907896   -0.80644181999472   -2.32705135023810
H          -0.44314576488415    0.21976474960113   -3.41895909973360
