    26
        -50.46309537  Gyration_radius:  2.39404216398 Dipole_moment: 2.609
 S          -0.12711267052494    0.07952856257639    1.55531574722711
O          -1.32473791052059   -0.02065542115714    0.72369756966929
O           0.95899732849280    0.68846606542017    0.76356010331765
O           0.28190901485229   -1.19791781423357    2.09473170122223
O          -0.42715754722889    1.03548832055975    2.73258917847003
H          -0.84541992447314    1.81722500245274    2.26976356094757
H           0.49864170022129   -2.36292807460014    1.04288357197524
O           0.65811361796434   -3.01095640953501    0.30253583373945
H           0.75508171335904   -3.86830862911092    0.71951446588979
O           0.48611168188122   -0.40981396507511   -2.45889363281942
H           1.30998319784456   -0.70531199135200   -1.86935633282383
O           2.21672584324137   -1.04440825293368   -0.75977766232122
H           1.90283122335803   -1.90406314042211   -0.42611256596259
H           1.91537078193636   -0.38626400626762   -0.08786493735715
O          -1.20269996281339   -1.73161258844926   -1.20911416516263
H          -0.31783284978002   -0.99252653758814   -2.02809320379613
H          -0.65347323599877   -2.41777453055494   -0.78447515988155
H          -1.39758111977212   -1.08704449461744   -0.47688177614238
O           0.31087189718393    1.91814461776145   -1.38746912301353
H           1.08456143525910    2.44450060851988   -1.60033586102795
H           0.31945584552307    0.55336817562437   -2.17303892646724
H           0.49898584042453    1.50824449904922   -0.49422744946101
N          -1.58905316573366    2.72283540698395    1.11282968855595
H          -1.03384057211900    3.27217857679268    0.46950428484064
H          -2.43109981753566    3.24062312917233    1.32815408658349
H          -1.84763236498475    1.85898288095295    0.64056099378284
