    26
        -50.46309537  Gyration_radius:  2.39386037193 Dipole_moment: 2.605
 S           1.00852986527103   -1.18950058220697   -0.11427873572271
O           1.50152639002927    0.18363563239339   -0.02756953631118
O          -0.35490179303282   -1.17681714076784   -0.67849310311928
O           1.03210275177716   -1.86864968164014    1.16185530276441
O           1.90552458731774   -1.97038021935850   -1.10195107169055
H           1.94672318119132   -1.35051369229669   -1.88554665846065
H           0.28262735173109   -1.14096769939017    2.35330349990111
O          -1.81386329571642    1.71329777886865    0.47255555335299
H          -2.12893390156201    0.75342771546405    0.77753440345780
O          -0.25589790603705   -0.63239332210252    3.02024320982653
H          -0.05930528912108   -1.02520662964580    3.87190620274544
O          -2.20657755236543   -0.67726565336365    1.11744703614058
H          -1.59152672114310   -1.04573523874054    0.43815089612060
H          -1.72956620177806   -0.76656616881884    1.96195304124766
O           0.33010841155097    1.68116561799430    1.72253686185562
H          -0.88989258176745    1.83118796544358    1.02442198072930
H           0.15408100992550    1.01488537357634    2.41399835266865
H           0.89448301784860    1.20104592062703    1.05872542145802
O          -1.12623208773311    0.94851747088074   -1.88143376103567
H          -1.54486169977482    1.58003260433410   -0.50059911146771
H          -0.74377029183241    0.11322678489793   -1.48472886044055
H          -1.89650670294556    0.66987228965478   -2.38148159269394
N           1.84374174178118    0.02571429692229   -2.78546991085923
H           2.63162260641161    0.34216337157640   -3.33568143930020
H           1.81495511862481    0.55772344861839   -1.91814073043620
H           0.99580997136421    0.22809975703730   -3.29925725067180
