    26
        -50.46862858  Gyration_radius:  2.47514561299 Dipole_moment: 4.020
 S          -1.01006957726085    0.03310018954959   -2.00629623949956
O          -1.39519080752682   -0.86287455980605   -0.90257944035103
O           0.41829979790020    0.07906772371871   -2.16028243198956
O          -1.66216971652960    1.32172212796341   -1.89834998477706
O          -1.60673798851812   -0.63524446304432   -3.31770298836017
H          -2.47838118199140   -0.25435565706223   -3.33622753945430
H          -0.83199453789622    2.03158230851713   -0.71703961628757
O          -0.37923543505561    2.41092436547427    0.07599846706154
H          -0.26870948728898    3.34622784378744   -0.10374913530878
O           0.20258227623951   -0.70339881386214    2.62868025183937
H          -0.01127067777863   -0.88579552927610    3.54377985176130
O           2.56294041312289   -0.60481298555385   -0.73458584183326
H           1.53273381612955   -1.52849165370848   -0.14172992397290
H           1.99299698505769   -0.28847383228635   -1.46034682903277
O           1.82892443636626    1.12424566869553    1.15586908469480
H           2.52395330704495    0.11459769193852   -0.06180071501139
H           1.10855045742192    1.62567562867973    0.73698095603539
H           1.40653414591596    0.56597427305540    1.82255197507501
O          -1.78134663871995    0.44599378930375    1.40826304434731
H          -1.81763287669299   -0.05399616312773    0.56867707958096
H          -0.60060203333223   -0.25036038772704    2.23348409794130
H          -1.44144483198020    1.31761399879934    1.15393845716811
N           0.64848196832095   -2.00794041255686    0.28334418796496
H          -0.18278479249258   -1.62205018240782   -0.24953124923945
H           0.55267207283447   -1.70131967536092    1.27026696672871
H           0.68890088671052   -3.01761128370515    0.20838752492311
