    26
        -50.43839794  Gyration_radius:  2.4961529753 Dipole_moment: 4.127
 S          -1.07414519952461   -1.75993563678676    0.31701453526476
O          -2.04004399976616   -1.31648783847666    1.33603094513271
O           0.28642078214491   -1.55312620735353    0.72166148568548
O          -1.39380415161665   -1.16303258320998   -0.97392453898305
O          -1.30136657910237   -3.30876711341474    0.16081130518639
H          -2.19730807467968   -3.35710048834221   -0.15697192619489
H          -1.20671226194952    0.38391021998832   -0.95319220247572
O          -1.15174960781816    1.37311035297512   -0.79922945831787
H          -1.74025870244976    1.77548431716656   -1.44111882389365
O           0.69430857198524    1.44658618530364    2.53889321994254
H           0.84795030804208    2.27558167454896    2.99601637480639
O           2.52201909634288   -0.70636492524319   -0.39860245543949
H           3.23515573642200   -1.02004124857550    0.15977656791919
H           1.70158615752886   -1.10246076405998   -0.03375833806740
O           1.51769058180310    1.72523716990507    0.10233109218687
H           0.68822331996113    1.69745255325044   -0.39357104329716
H           1.12015584709372    1.53361240538105    1.63111195972695
H           1.99847183506065    0.90441409036305   -0.14602421365946
O          -1.65017183401279    1.07212796836309    1.71752647504594
H          -1.85554095249181    0.00889378581371    1.64710111078183
H          -0.70536959981113    1.18283201945562    2.15994917694616
H          -1.52417797065633    1.34409197469475    0.75419698907596
N           0.82348725274689   -0.43941839646657   -3.00930991858479
H           0.02981841398856   -0.86148817420175   -2.53858336704569
H           0.72759420811258    0.56549251923105   -2.91840033531080
H           1.64776681264711   -0.70060386030758   -2.47973463643072
