    26
        -50.43839824  Gyration_radius:  2.49644831947 Dipole_moment: 4.132
 S           0.11623335125026    0.72580506951728    1.95313082093170
O           0.98268005381858   -0.27950455481884    1.40885177649766
O          -1.11328555099604    0.15885803557017    2.53194478817284
O          -0.21401737633733    1.78338133517972    1.00578229898570
O           0.86952717839127    1.41684988742844    3.14887613103635
H           0.25674345309023    2.09372469029744    3.41802091772525
H          -0.97272303449384    1.22769116667502   -0.23677828141746
O          -1.53805813457372    0.78207666778445   -0.93468615082782
H          -2.10053972123970    1.46821627674375   -1.29948961097785
O          -0.82600402011014   -2.88384778268700   -0.15253789000131
H          -1.28300603484892   -3.58335964172248   -0.62333073283809
O           2.47652200801445   -0.57006704542953   -0.74838927657160
H           1.98746054876580   -0.39894694276156    0.08507120711665
H           3.10402853141421   -1.26572364607101   -0.54591704307353
O           0.16717894718528   -1.26757835743381   -1.91142116638757
H          -0.35258065589259   -2.32956104644343   -0.84651799453812
H          -0.36535788529298   -0.47215058381748   -1.77582687505021
H           1.07453963375268   -1.02789963694682   -1.61851008273772
O          -2.27900693058364   -1.03916846523092    0.74072616791581
H          -1.80574763932197   -0.57551755858479    1.60034134724230
H          -2.13775223183223   -0.35953500240826    0.00863482044298
H          -1.69360506700398   -1.86503492819777    0.46559837251134
N           1.52809374555091    2.31272692716971   -1.49832190577289
H           2.21761642243279    1.57619244185722   -1.39751932059653
H           0.84773730645863    1.98187139952862   -2.17284580833416
H           1.05332313239338    2.39050129481570   -0.60488651943782
