    26
        -50.46309501  Gyration_radius:  2.39418903692 Dipole_moment: 2.608
 S          -0.72650874274307   -1.32705176220783   -0.38598390523029
O          -0.08624967307511   -0.51223225536750   -1.41656546681848
O          -1.09690717737402   -0.46199453042476    0.75046554738682
O           0.10786218956013   -2.42399973839211    0.05089322213825
O          -2.03665741200618   -1.90865527184056   -0.96523265757580
H          -2.46379669322471   -1.10205502099159   -1.37375536844188
H           1.56418238011615   -2.04368159387235    0.54536996817876
O           2.43563839639150   -1.69828522481406    0.88393796395880
H           3.00015117517570   -2.46552011489708    0.98883303297184
O           1.35646947632445    1.94106812960108    0.91964552254912
H           1.23035343003297    1.20005475833934    1.65981452724783
O           0.90269759423304   -0.03053247761062    2.40074031800485
H           0.07514930524808   -0.29571426356823    1.93157879161854
H           1.56958618785140   -0.68301881756393    2.12120233974959
O          -1.14439619694242    2.06711087952460    0.34802219721074
H          -1.20105572179245    1.07110986483880    0.42617258539116
H          -1.64226811765515    2.41515416174069    1.09099522243688
H           0.40514029410995    2.14255636994312    0.61678040696634
O           2.25170124617835    0.41141985976983   -0.81761855110001
H           1.39271980093199    0.07529722351501   -1.19024993831087
H           1.81309274214466    1.37856927091206    0.11479187714223
H           2.58831161316293   -0.33220838636942   -0.28218011304328
N          -2.64771181696487    0.40943300111120   -2.00184338243561
H          -2.94743191146580    1.17125763132190   -1.40732403811631
H          -3.06450766405226    0.53576790682834   -2.91492845669584
H          -1.63556471422318    0.46615042045348   -2.09356163512950
