    26
        -50.46570315  Gyration_radius:  2.4302003998 Dipole_moment: 4.256
 S          -0.66869958937622    1.59656738641584   -0.93506085558183
O           0.77343764211471    1.73968784157832   -0.79500173455518
O          -1.33319736030097    1.55867559692418    0.36562963835590
O          -1.06755867393721    0.51381975775769   -1.80248659794964
O          -1.15060709105989    2.93590474634828   -1.63372367929216
H          -2.05203856352543    2.75200501808520   -1.87941503600495
H          -1.83496647082825    0.02198780966485    1.24987491049313
O          -1.78443512268427   -0.87667583122608    1.61022735471042
H          -1.83052481267914   -1.45486052544199    0.81734524495621
O           1.40453392461623   -2.10055291763642   -0.32360286505386
H           1.99981249695984   -2.82739951760240   -0.51052654233799
O          -1.38052678878725   -2.00255263639101   -0.77893240752658
H          -1.38147006353953   -1.14525298567317   -1.23808698223719
H          -0.44743379601939   -2.22997696273195   -0.65032788628609
O           1.50044546131551   -0.33519707134327   -2.27573546356399
H           1.44320651095980    0.50855097914184   -1.78918474314411
H           1.52546999434797   -1.44127748781142   -1.05678961952268
H           0.62247226320632   -0.42112088073016   -2.66611143662204
O           0.76901144864038   -1.10980254591967    2.14952197413452
H           0.91992119859303    0.34562366839793    2.01102723215885
H          -0.22608440539965   -1.15169160790099    2.09465292876757
H           1.08037566057890   -1.53166983379446    1.32711967743669
N           0.83628953455001    1.42330429255562    1.78053905440643
H          -0.17190581147699    1.59347043510708    1.55003816118570
H           1.26997561850654    1.61741805822093    0.85742951529756
H           1.18449681525368    2.02101522407490    2.52158018782372
