    26
        -50.46570320  Gyration_radius:  2.43019215269 Dipole_moment: 4.259
 S          -0.37108321281482   -1.31939597243014    1.41091065299049
O          -1.25918718024127   -1.63255186039666    0.29388595341137
O          -0.64515993720355    0.00165469950533    1.95838662275959
O           1.02087267928200   -1.54847159918240    1.10455174338931
O          -0.75138706652304   -2.33280040792809    2.56974697196833
H          -0.40152288388763   -3.16530651192145    2.26759021898902
H          -0.83260423179536   -1.42428744775783   -1.48695728414590
O           1.59648978595434    1.87492101843849   -0.65403226847898
H           2.19893966246526    2.60689361953807   -0.79131732849126
O          -0.48577901772081   -1.01911936275602   -2.29659119047206
H           0.48931970666807   -1.06036934168824   -2.18518775459352
O           2.00406740145002   -0.83221403699242   -1.34501028995029
H           2.01733342833282    0.12944485033417   -1.22670058994826
H           1.75497089392050   -1.20026556937594   -0.48005332042461
O          -0.85172269880202    1.53420073551464   -1.83442826678257
H          -0.73186353906471    0.61518552370160   -2.20300327945344
H          -1.75120730580647    1.19228608523195   -0.72292452332139
H           0.01997804017794    1.76872315010144   -1.46520819690333
O           1.81310996299462    0.98235037247357    1.81429722896354
H           1.67612813658822    1.61957120128603    0.30264298548727
H           0.88545940173240    0.77889057742983    2.03813393507117
H           2.20055640368950    0.10945878901094    1.67796268656212
N          -2.31330920236734    0.73003434332333    0.10863384859927
H          -2.20961984008624   -0.30584927760132   -0.01123645696885
H          -3.27932530445453    1.03325993542328    0.15837352754400
H          -1.79345409249596    0.86375649668832    0.99753436418922
