    26
        -50.44962140  Gyration_radius:  2.52266302507 Dipole_moment: 3.568
 S          -0.33886681007421   -1.12158028450417   -0.67986180547038
O          -1.78668651625117   -1.04969413453274   -0.64254533060994
O           0.26041028448587   -0.99128572578293    0.63847382456387
O           0.22877530445445   -0.12511688257838   -1.59736494259501
O           0.08620280254379   -2.52871255044239   -1.21388323811222
H          -0.35507387140074   -2.56852464045789   -2.09500294943792
H           0.47698365970893    1.18111456075498   -0.90091926433381
O           0.62322304826151    2.07507858696311   -0.43719502384199
H           1.16100654502322    2.59121787934368   -1.04080376738093
O          -0.47898100391656    0.99565790896826    3.03131762712912
H          -0.88180652919935    1.69752448878027    3.54702376193404
O           2.65655761650658   -0.69756717378251    1.37211783346670
H           2.75100407709058   -1.26330405852530    2.14147499980762
H           1.77042496135655   -0.94415724768940    0.96639411922220
O           1.65578780308985    1.56105437124445    1.83307748890587
H           2.16475985392921    0.65733767708319    1.68986512468075
H           1.27748330186338    1.79972195244316    0.90548786096119
H           0.80525584995161    1.31619742232111    2.39657604049631
O          -1.84738260651219    1.14698264000363    0.82407593570880
H          -1.94864383977947    0.29671094382105    0.34333920470378
H          -1.05395850675593    0.88558900470691    2.21856237624903
H          -1.27083414304640    1.68721443903085    0.27247509078280
N          -1.34153593156344   -1.86479599969410   -3.31563014207893
H          -0.76416472678811   -1.04540657094127   -3.46722755447186
H          -2.02639800172352   -1.60208565634130   -2.61234007901681
H          -1.82354265130554   -2.08917094028771   -4.17748717123450
