    26
        -50.46570320  Gyration_radius:  2.43012835109 Dipole_moment: 4.262
 S           1.93871860154520   -0.27785935742827   -0.18116346851711
O           1.28795672936854   -1.56621809425512   -0.37272156199412
O           1.70954593835761    0.24468254539746    1.16382163112657
O           1.64620315732833    0.68489746680553   -1.21625343984637
O           3.49196588739534   -0.58271575161554   -0.27372425298676
H           3.88997713815350    0.28068495141575   -0.32742320472733
H           0.40771134522541    1.46925273918800    1.61499757292727
O          -0.45823347884516    1.90402939632788    1.64732946448876
H          -0.56367720847665    2.29251395901113    0.75118774518384
O          -2.18096146995661   -0.00760197843076   -1.31614971086034
H          -2.95922552448148   -0.09803894936446   -1.86723083624680
O          -0.56178705800341    2.28314607603741   -0.99542452793301
H           0.28730294967952    1.83291693220525   -1.14379728414229
H          -1.24516276828141    1.62329270224650   -1.18650753076776
O          -0.07440145711686   -0.97297030958365   -2.56788158905659
H           0.44546758405908   -0.17616650737361   -2.72776438195885
H           0.40963635608052   -1.40930112323946   -1.84176785711058
H          -1.43429123284982   -0.43902404314472   -1.80919875684777
O          -2.10100265113596   -0.12466550662749    1.41925528151858
H          -2.24772219460654   -0.11912923959937    0.45506275348752
H          -0.99126235948281   -1.04226231524178    1.71553493035154
H          -1.62641382618906    0.73205141550246    1.60810397506161
N          -0.02300592793466   -1.55284781055518    1.86697206566094
H           0.69284257842705   -0.79394293232292    1.96614663109554
H           0.28831949053862   -1.98165362012027    0.97395090033053
H          -0.02850058883666   -2.20307064506147    2.64464545187628
