    26
        -50.46570322  Gyration_radius:  2.43013718592 Dipole_moment: 4.261
 S          -1.83655459784885   -0.57672601836110   -0.40418464952946
O          -1.16770330074570   -1.67648714189487    0.27645645512181
O          -1.19866850314366   -0.26890907737688   -1.68207229935045
O          -2.03245465695535    0.59026232952421    0.42257237117221
O          -3.28065899597474   -1.12787980868222   -0.75762624395441
H          -3.75848275704448   -0.35224218588900   -1.03489307748548
H           0.04483056436265    1.06530028589438   -1.94814439641325
O           1.55761931260215    0.60735124019087    1.92190040155664
H           2.09335005580024    0.75391165093995    2.70233711203603
O           0.81582365373212    1.63244144244661   -1.79364231814634
H           0.55469627049162    2.18579024938236   -1.02507319028406
O          -0.06735159687978    2.48567477174904    0.57923144645026
H          -0.86265503458248    1.92742926078597    0.54010507635035
H           0.56715928313209    1.99988175881287    1.12729131601383
O          -0.74554657154762   -0.47461085956276    2.60107370557850
H          -1.36722394361779    0.23438663273948    2.39716209966693
H          -0.89156736039281   -1.11055038390474    1.87566354024184
H           0.73283260800919    0.14614421986540    2.22817356305371
O           2.46997109328528   -0.00343420364247   -0.58772108695718
H           2.26232210917258    0.19828536596376    0.34361438958485
H           1.63908553643735   -1.13913204960558   -1.01374284358213
H           2.00800333765285    0.70953474186758   -1.11031725544640
N           0.84624358682924   -1.83004131058340   -1.35297149278847
H           0.28280640556712   -2.14120652465685   -0.53804612050084
H           1.19537021925131   -2.59684012483596   -1.91664361255611
H           0.13875330247134   -1.23833426128044   -1.85050291979567
