    26
        -50.47250314  Gyration_radius:  2.48723885373 Dipole_moment: 2.881
 S           0.51043262318193   -2.19983390187975    0.20958933306803
O           1.28511719350798   -1.08121766203837   -0.29268595492148
O          -0.72240305940600   -2.39164305747461   -0.54449001449793
O           0.27051874284146   -2.14170964247171    1.63879125772420
O           1.39275272637157   -3.49231448045491   -0.03681817854669
H           0.89793197092471   -4.14613828975793    0.44507624223641
H          -0.42675949403005   -0.78185958665351    2.09033993550261
O           0.66751151109672    2.64814745796582   -0.36444293424485
H           1.07506460079050    3.51061131103464   -0.28349209991447
O          -0.80265763216694    0.09622890785314    2.36207630308079
H          -1.26997715878543   -0.05994588984693    3.18400274302856
O           0.95438064364204    0.70054029923567   -2.29364187281357
H           0.94577904400446    1.51450345749568   -1.75748667286598
H           1.31554290943465    0.01585043490141   -1.70073505323621
O           1.64820265805135    0.97476312321195    1.37429773403214
H           1.68368213393433    0.17384775060567    0.81355889250558
H           1.10795398990292    2.06167594246838    0.31709910142693
H           0.90847870627126    0.81372309487825    1.97824775405219
O          -1.77619131389583    1.53936539002543    0.25546399527689
H          -1.00986769613367    2.10301546713473    0.04520330026857
H          -1.73125756227201    0.49226604718573   -0.94792386743309
H          -1.51984369321250    1.04544417098271    1.05723495611234
N          -1.45348158995352   -0.18264702276942   -1.71998828695990
H          -1.21965825541709   -1.11779471612520   -1.27615263004202
H          -0.54696744661803    0.18725636573141   -2.13825916654929
H          -2.18428456206603   -0.28213499123819   -2.41486480629056
