    26
        -50.46570302  Gyration_radius:  2.43019805559 Dipole_moment: 4.255
 S          -1.76531850008732    0.36190349641592   -0.78882914004259
O          -1.38874863879654    1.55179735807421   -0.02934824608073
O          -1.89713684710788   -0.80358926552231    0.07375155529565
O          -0.92783311211548    0.14306237645681   -1.94401009359017
O          -3.22759588137622    0.63678847514539   -1.33713692520479
H          -3.09307179286356    1.27111658847310   -2.03447403580292
H           0.33024802365529    2.19142353284671    0.15023936283599
O           1.92299527597796   -1.67081720849446   -0.01231834819750
H           2.56834579307459   -2.37854671846321   -0.02707124491468
O           1.28919028219898    2.19120957426487    0.29299205196812
H           1.65132813978347    1.77253441465093   -0.51852598502536
O           1.77079278250555    0.54509288008716   -1.75576407026281
H           0.82615379653283    0.44918630355866   -1.96587457388419
H           2.00347193005756   -0.23625044364692   -1.23201064633041
O          -0.27539994889287   -2.43124474296563   -1.24772166707092
H          -0.27196344118391   -1.86506464238466   -2.02881830381835
H           1.09940900025025   -2.03107807627358   -0.43487795451892
H          -0.96904563388571   -2.03201453284861   -0.68964114319783
O           1.59640735725366    0.19710928922564    1.96483707202816
H           0.14917781097700    0.20659523080338    2.22453633340347
H           1.79250443098905   -0.52401846636864    1.33824658794380
H           1.64398081143867    1.02913870848261    1.41673775097768
N          -0.94961548826380    0.32227032687093    2.21163540009192
H          -1.37707462681488   -0.46546363364056    1.68739691008632
H          -1.15064777472023    1.11240024312036    1.55308640550637
H          -1.35055373844954    0.45645893265222    3.13296296786736
