    26
        -50.46570265  Gyration_radius:  2.43019009388 Dipole_moment: 4.251
 S           1.72066156283154    0.77003517473111   -0.56340566765136
O           1.62949479038760    0.90275460415320    0.88391388896711
O           0.67440353144602    1.53353412111868   -1.23900901528882
O           1.80550513119304   -0.59646189140274   -1.02087373992061
O           3.09192779041140    1.46269988853164   -0.95574074239337
H           3.22906585407013    1.19827198317774   -1.86019819911734
H          -0.92079082656225    0.83482128274326   -1.84018152322307
O          -1.03062871344879   -1.94903513204772    1.27634481850924
H          -1.33133403043025   -2.67212474656652    1.82795923388579
O          -1.74147245942642    0.31862053766685   -1.84722249016517
H          -1.43712493551659   -0.61245240114449   -1.92210848107449
O          -0.48552311161699   -2.01293875863114   -1.49356929771083
H          -0.76266532666112   -2.16263562845096   -0.57721007780194
H           0.38858876727355   -1.59034096848143   -1.43861731896872
O           1.57988600532201   -1.67603455185408    1.49400100847219
H           1.88224771000985   -1.93619362926047    0.61566101829544
H           1.68340138546310   -0.70584436690525    1.48423781840354
H          -0.05605728420180   -1.85323333384488    1.44290766939268
O          -2.42253396880664    0.33412675202035    0.68267759664643
H          -2.36033516929920    0.31227563332258   -0.31268399666662
H          -2.01826581728024   -0.50408075445873    0.97449578726920
H          -1.46299554254920    1.42135720147335    0.92331001352580
N          -0.64082472779044    2.15966673842335    0.90741355045124
H          -0.90243816129264    3.06134019409716    1.28971496910972
H          -0.31504561227451    2.21007296787577   -0.08703964033573
H           0.20285314874729    1.75179908375743    1.35522281739837
