    26
        -50.46999650  Gyration_radius:  2.46244900247 Dipole_moment: 3.030
 S          -1.45527427747346   -1.04453152505330   -1.30134233959991
O          -1.86748792178384    0.28470259535613   -0.92857467851038
O          -1.94691845887238   -2.10415143806648   -0.45453482563400
O           0.00576558967187   -1.10059722347386   -1.48842017164042
O          -2.05944406313178   -1.34906000018859   -2.74413974382806
H          -2.60328934667690   -2.10605603361614   -2.55475247866680
H           0.89799281100773   -1.69969748896939   -0.24755091918581
O           1.42314750524070   -1.95836192404750    0.54812365702812
H           1.70061055774771   -2.86390729239678    0.40531135788742
O          -0.07984730783543    1.41406072172977    2.09761503893724
H          -0.34418210571714    1.66387575256115    2.98379076275638
O           2.33131450471591    0.60688511975404    1.04592706633563
H           1.59495783928796    0.96076487618470    1.57840788290071
H           2.18811552427818   -0.35341978651996    1.00911516720486
O          -0.79210873825954    2.61016520200094   -0.26775012051844
H           0.43790556498323    1.93224417687186   -0.95021110434367
H          -1.40868641922609    1.90437962944478   -0.54657250846141
H          -0.60349033881113    2.40182412062592    0.66537830820383
O          -0.89389651301535   -1.05470935547893    1.75668544881280
H          -0.48471148252294    0.52065037160781    1.93514929362424
H          -1.45891404446653   -1.37698289569447    1.03092258371660
H          -0.04422414348266   -1.50132569993280    1.61758694360183
N           1.20124685303910    1.24189661703850   -1.25559485198608
H           1.73204101573288    1.57947969280865   -2.04965300160316
H           0.71506432940997    0.33298862778485   -1.47672389096988
H           1.81431306615983    1.05888318967127   -0.40819288606100
