    26
        -50.46999572  Gyration_radius:  2.46226602084 Dipole_moment: 3.068
 S           0.12525043491207    0.05070436124434    2.20965828968851
O          -0.50580673578300   -1.13814551811256    1.69634507982977
O          -0.77174180122615    1.12372025209238    2.56419510290867
O           1.20790996395096    0.49198621223299    1.31159405300507
O           0.86148935920481   -0.34350349871801    3.56698066910559
H           0.43180795677614    0.24223985030191    4.18115687315991
H           0.86675180370571    1.71139691764928    0.26735126625076
O          -1.74308095411785   -0.59330546660524   -1.73605444473791
H          -2.60610456570679   -0.60521188076354   -2.15156169157475
O           0.61131509208124    2.36729983250100   -0.42576757468907
H           0.95777208320629    3.21264594972176   -0.13789241302949
O           0.65595621564018    0.52465074255558   -2.48792643846313
H           0.65079460132148    1.32459504752314   -1.93637670654929
H          -0.24497581493696    0.15702241137730   -2.42335235288559
O          -0.46209427773716   -2.66194121581181   -0.46620206394842
H           0.88960714832931   -1.90175531909042   -0.64864752838707
H          -0.60135580618022   -2.31569446660852    0.43753162143893
H          -1.04252351454967   -2.10968913277860   -1.02100189229011
O          -1.85361476316148    1.24353627136451    0.13187644492435
H          -1.64025200241621    1.11668177869002    1.07431191975754
H          -1.17650136957346    1.85968730872588   -0.18829038669987
H          -1.82350970446597    0.02409043926883   -0.96095968943733
N           1.65438357422103   -1.15056273540135   -0.70649359155390
H           2.58184352792742   -1.54907293661779   -0.79140611396994
H           1.56674527516646   -0.56322538610104    0.16462471990494
H           1.40993426341499   -0.51814982863761   -1.52369315175897
