    26
        -50.46596329  Gyration_radius:  2.52190561515 Dipole_moment: 2.166
 S          -1.09354048835742   -1.68017636539510    0.80694339309605
O          -0.65394276118786   -0.90006874047834    1.96176630269024
O          -0.06093725116636   -1.75928247650084   -0.20996311713470
O          -2.38895445004190   -1.27109922616105    0.31619536851964
O          -1.27281008505628   -3.16850978685023    1.33534536436962
H          -2.13867194976354   -3.15516104866535    1.73059025099506
H          -2.41779451534271    0.12121817697986   -0.53370505322893
O           1.99919963851935    1.35559786598107   -2.04968741188926
H           1.94091213463117    2.06284564481161   -2.69259907619761
O          -2.33063499675464    0.98458764599236   -1.00494332215099
H          -3.22200711102609    1.27111068604498   -1.20996798986818
O           2.01941358132627    1.72620723875101    0.57698308567740
H           2.09190028940472    1.68679849595076   -0.40524470892363
H           2.03794686427320    0.32633084788370    0.97589669070657
O          -0.60237142267158    1.68062989334782    1.04593375128618
H          -1.19457865493603    1.65040237948509    0.27849492050320
H          -0.71931118962949    0.83014150081680    1.50023034692757
H           1.07194804675008    1.92034492111955    0.76655214725547
O          -0.18534489781295   -0.11174069633548   -2.36751365920590
H          -0.12286212704498   -0.83253342793775   -1.71819498233499
H          -0.95639751033566    0.40567443143675   -2.08773610300384
H           1.21720791533229    0.77156759417026   -2.21303180358789
N           1.84636004196683   -0.73465347027667    1.24840161388105
H           2.65625529586689   -1.19696778277385    1.64524524785678
H           1.46330567329949   -1.23436390323322    0.42200440661671
H           1.01570991976219   -0.74890040816326    1.88200435713637
