    26
        -50.45234087  Gyration_radius:  2.4588579233 Dipole_moment: 5.681
 S           0.48605992389713   -0.36465951178902    2.09618142859055
O          -0.97276457103380   -0.02395584444872    1.68000399635037
O           0.58257856695390   -1.87650935788805    1.91899135968805
O           1.36020808265911    0.28373230120936    1.13067571008554
O           0.69525761362195   -0.00040303625061    3.44822333639122
O           0.64789520201491   -0.22837427595142   -2.18470016006388
H           0.78880647861711   -0.42717994887494   -3.11110887705723
O           0.85861730408077    2.78560510576083    0.45167441337037
H           1.12107575046575    1.90831896960444    0.80761229383969
H           0.72122283555308    3.35384777306020    1.21055702657596
O          -1.06369915801169    1.17169690712763   -0.58540061153063
H          -0.50718018984274    1.94177720643683   -0.35881992844858
H          -0.54192644543324    0.65987550699669   -1.23132687212950
H          -1.01855411928179    0.41948618017647    0.76659521914491
O          -0.13340371014593   -2.22848318259993   -0.46670853880860
H           0.24443665155628   -1.56633941564586   -1.07338066787367
H           0.34279805855469   -2.07884717432170    0.93812767440311
H          -1.10777628420621   -2.04285702418812   -0.43949582613364
O           2.72509511555624    0.95625387693843   -1.09127754740179
H           2.52450387095866    0.56508072176311   -0.22485715591624
H           1.48472794375836    0.18867401347512   -1.84828031471565
H           2.50920893199189    1.88983413374319   -0.99716530483381
N          -2.70824024753013   -1.45076281160138   -0.27718860151323
H          -2.76560395303786   -1.30436840605106    0.72389801317326
H          -3.51151517256243   -1.99302686944941   -0.56803089438177
H          -2.76182848915157   -0.53841584723572   -0.71479917081476
