    26
        -50.46194839  Gyration_radius:  2.51147381271 Dipole_moment: 4.766
 S          -0.65481648561556    1.91828729254944   -0.62798660644489
O          -0.82271039109717    1.33345995949517   -1.95413243428231
O           0.66955818062445    1.68847813193904   -0.09172417174431
O          -1.72893592631797    1.52858003515060    0.26818827460292
O          -0.77836709144065    3.48801308337713   -0.80952470012745
H          -1.69639167933890    3.63204362146071   -1.01964029227333
H          -1.77444546455393   -0.08651012099034   -0.19899552363101
O           1.97499712774858   -2.01684905344202    1.28109343871265
H           1.95581326845011   -2.62172133983815    2.02316215541540
O          -1.79004716591067   -1.03119028597034   -0.45446117811424
H          -2.25256111460700   -1.05652360873662   -1.29425580291361
O          -1.58803906186037   -0.09264425148787    2.47079644492300
H          -1.84269227584007   -0.88629124901882    1.99214877277777
H          -1.74918775615795    0.63884768019895    1.85246957679937
O           0.58231428919724   -2.26056591399868   -0.94223101724974
H           1.11817565729535   -1.03799913463096   -1.58615289603005
H           1.10796933153855   -2.29833505696795   -0.10619512616147
H          -0.31209285247102   -1.95831712616240   -0.68532248135112
O           1.09778959064009    0.27866294662756    2.20700798606689
H           1.02662336150834    0.90046651836194    1.46468072334557
H           0.17788797973936    0.12880550924904    2.50140821207000
H           1.70923085341680   -1.13061953173680    1.64561637133317
N           1.37442954571542   -0.02731590385626   -1.93510668334672
H           0.47860459131376    0.44263962211664   -2.23756040250720
H           2.09319576996661   -0.02203851885268   -2.64995495378677
H           1.62369771808277    0.54863672508590   -1.11332767602769
