    26
        -50.46194763  Gyration_radius:  2.51146909268 Dipole_moment: 4.784
 S          -0.03883291520127   -1.92803594458754   -0.88522841796547
O           1.16314162352337   -1.36203350711497   -0.31173089321121
O          -0.42935589656710   -1.25835910826339   -2.12160545968112
O          -1.14890684544867   -2.02068004776607    0.04609914572285
O           0.33383452559240   -3.41720749505631   -1.28001081140131
H          -0.49604385931644   -3.81204499163175   -1.53112976692561
H          -1.71813761175377   -0.45704847096589   -0.19886273298104
O           1.28525007945710    2.35330487739389    1.55429330015504
H           1.10980779204085    2.82085860651629    2.37127094136351
O          -2.03950560362568    0.45864855669377   -0.32561718512467
H          -2.51231929768647    0.44529535412962   -1.15992449812165
O          -1.44715449174066   -0.74174301344231    2.44913314508700
H          -1.39113951198737   -1.39849034685351    1.73573776103423
H          -1.95854206115034   -0.01548600380592    2.08206040479622
O           1.20658399818512   -0.20060170790800    2.15878376414972
H           0.29746132729674   -0.39034817802742    2.46349559135389
H           1.30912092551400   -0.71105317898668    1.33921328505321
H           1.32350799462724    1.38914171944770    1.79521430703180
O          -0.19666729863641    2.43189918752330   -0.62255644705783
H           0.67460528671149    1.53754669542916   -1.42109862945276
H          -0.93982816823058    1.83018862926390   -0.41527384725221
H           0.32054827484114    2.52478988252853    0.21443315200408
N           1.22460087611074    0.71502401189197   -1.90053309409043
H           0.51307555167681    0.02702990342642   -2.26904889573257
H           1.67374958045013    0.14805149851907   -1.16190327335035
H           1.88114573532218    1.03135307165662   -2.60521085541065
