    26
        -50.45234090  Gyration_radius:  2.45884686109 Dipole_moment: 5.681
 S           2.13229303464831   -0.17657115368972    0.43038965876612
O           1.91338083085109   -0.52260894895166    1.89956380091360
O           3.51045799867093   -0.19694914716444    0.10673326128090
O           1.39460650978983   -1.30652451839683   -0.34194309302661
O           1.43588081993635    1.06388697659944    0.12533178810160
O          -1.97360311097897    1.05107744763715    0.49457306955154
H          -2.84727346662623    1.34190508281235    0.75865860638602
O           0.77349089183683    1.55758725408789   -2.38260370622999
H           1.14077275729911    1.43549111723360   -1.47961084655773
H           1.50270689989538    1.42614754666595   -2.98978806722766
O          -0.35986244932042    3.06629977375843   -0.00389834042296
H          -1.42706454097887    1.86904127256490    0.35428806275141
H           0.41393416129112    2.54849395101402    0.27370513214235
H          -0.27699162351712    3.14149396588075   -0.96019246173917
O          -0.76849816054870   -0.46412654965055   -1.42896812882999
H          -1.29354176201379    0.00923766034674   -0.75690299773700
H          -0.37928923638356    0.23480134037776   -1.98946188023247
H           0.51847320700231   -0.98750218432634   -0.74652116398841
O          -0.58802757985051   -0.71324666747477    2.08517682133748
H           0.89532751870521   -0.56905304677975    2.04780239460032
H          -1.05484295211050   -0.01064899299853    1.59765715661926
H          -0.78674085288279   -1.55504599660315    1.59893206216269
N          -0.98603819005025   -2.87542804833024    0.52399799531615
H          -0.02244414176413   -3.12510123752230    0.33406067746252
H          -1.38022567969038   -2.52989919096519   -0.34317789470916
H          -1.48688089320967   -3.71275769612684    0.79219807331548
