    26
        -50.46194831  Gyration_radius:  2.51165783546 Dipole_moment: 4.758
 S          -0.98070594931959   -1.86683875764004   -0.23926314053038
O           0.05944590319523   -2.42679230717208    0.61717610288329
O          -0.43155520609876   -1.13187234392364   -1.35844889346528
O          -1.96297974750650   -1.12277377100079    0.52909677873602
O          -1.75416832919345   -3.09750338120564   -0.87131411518515
H          -2.23089030293455   -3.48008336831879   -0.14058002488186
H          -0.85681910327446   -0.34607182021187    1.53008820575670
O           1.38350076917259    2.59924772075691   -0.97448785110328
H           1.21361365347109    3.53743068402411   -0.88518867550944
O          -0.21333013468631    0.12075713376662    2.10082683601982
H           0.06160156567281   -0.52787313995020    2.75160939853243
O          -2.42453815512314    1.57593029829587    0.51985444590486
H          -2.50709999529652    0.60891820206823    0.48115959916367
H          -1.86221384641147    1.74947005373607    1.27974273382335
O           2.10397630731230    0.97962636834996    0.97479373466551
H           2.18368575867919   -0.23947355032798    0.13659865907165
H           1.90181919505971    1.67735331846252    0.30461188219809
H           1.26808918842231    0.81878730922589    1.45734501356238
O          -0.89327492336357    1.53271146330355   -1.73306330086173
H          -1.53454043022285    1.70746655782393   -1.01648711838896
H           0.54301949258455    2.20318054772389   -1.32891141468985
H          -0.79095582830076    0.56727295521232   -1.74969397216400
N           2.02636654453943   -1.14625757629688   -0.46530365033102
H           1.45353993402263   -1.81832229471208    0.11354333448527
H           2.88906398432446   -1.54903276874136   -0.81343853123277
H           1.35534964535031   -0.92525751325572   -1.22026601658032
