    26
        -50.47250311  Gyration_radius:  2.48731310501 Dipole_moment: 2.884
 S          -1.55682785906166   -1.49083486312491   -0.70589085404825
O          -0.85914619512573   -1.37170413087278   -1.98037330119270
O          -1.69243930370060   -0.20970349178724   -0.03951884198476
O          -0.98007220280315   -2.52178844168750    0.13558447891982
O          -3.02863993744501   -1.96951016903665   -1.04338401203853
H          -2.86896243223638   -2.86064559111926   -1.33465782197641
H           0.42960555344902   -2.10194660571736    0.74836721219491
O           1.27524440253384   -1.79934138073361    1.17210397283570
H           1.76468285307533   -2.59594662700103    1.38232199651932
O           0.81796613709657    2.17574503600110    1.47866666189669
H           0.98097862229738    2.78774181757595    2.19655972912510
O          -0.94622088804219    2.31533130305028   -0.63450043394069
H          -0.36460579056508    2.47467638989154    0.13126793168799
H          -1.46309243766796    1.52421491675914   -0.39392759640530
O           2.32569077584131    0.42441453754635   -0.01982381811564
H           1.96656770651824    1.12834534333177    0.54997656212667
H           2.04793541083445   -0.41214910284938    0.39907259677575
H           1.42443817550270    0.59233186195350   -1.32611535680311
O          -0.45400554070179    0.06103742994292    2.31220914290832
H           0.31218035652161    1.40622165597437    1.87171059609567
H          -1.05651203570886   -0.06561642003279    1.55185962669200
H           0.19966420630725   -0.64794268359656    2.22251629885093
N           0.64504996789393    0.75686122146529   -2.02909820496722
H           0.01696394170864    1.51224010978724   -1.61856893169979
H           0.05643041602034   -0.12424751077545   -2.08592090989366
H           1.00712606745862    1.01221539505511   -2.94043670356288
