    26
        -50.47376046  Gyration_radius:  2.38786775927 Dipole_moment: 3.933
 S          -1.52825386926493    0.18867482779954    1.00429709933872
O          -1.29394467848958    1.23879248899391    0.02673053852939
O          -1.79048412816491    0.66816226408307    2.33289918928661
O          -0.50800755433147   -0.84924600903436    0.92820750385393
O          -2.86859040617342   -0.55076908571515    0.53058188764293
H          -3.53369917610061   -0.06197107458848    1.00320746682259
H           0.98645526826821   -1.53223441029556    0.36842334751444
O           1.15574900280309    2.15293685085174    0.59271346919193
H           0.20864319247604    2.04938364661454    0.37942097023371
O           1.70840838251185   -1.85314288351786   -0.20408150091413
H           1.28087237830083   -2.46382437624418   -0.81147591289603
O          -1.15639054320523   -1.98392256433540   -1.36858049102915
H          -0.97999603683703   -1.61407534224900   -0.47812261089748
H          -2.10157315347016   -2.14291891610118   -1.39041431131023
O          -0.46507744746414    0.43536046465609   -2.37262591101992
H          -0.87796771895872    0.87138718513855   -1.59813560015992
H          -0.70881343728132   -0.50544596972315   -2.26890015234455
O           0.82853804796019    0.74615514759744    2.85148184149316
H           1.02477408042105   -0.18320688984255    2.71190894932516
H           1.24022287615814    1.76307172715342    1.48828513780985
H          -0.14515227768125    0.80474220809983    2.84876563741938
N           1.93916819328878    0.56560082716603   -1.33160916026794
H           2.74117325215216    0.84261648220642   -1.88526404638116
H           1.75598840376069    1.25415742308543   -0.52954947394625
H           1.03664649770683    0.55266127614267   -1.90542099064973
H           2.05131086164375   -0.39294529790782   -0.92274290663015
