    26
        -50.45993165  Gyration_radius:  2.42536642487 Dipole_moment: 7.474
 S          -1.79943932824473    0.22686058892349   -1.12738667360994
O          -0.64291983561585    0.43586039721701   -2.03071312413377
O          -3.05262059022349    0.57002960445978   -1.70097426395262
O          -1.50823366111180    1.18740856131223    0.11388019028257
O          -1.71924712364344   -1.11063721408039   -0.53979078690055
H          -1.32643831008055   -1.24216845109912    1.03101720804447
H          -1.01515310525102    1.94082830437504   -0.28503034284807
O           2.08352742894191    1.21056492355857    0.53087124116921
H           2.87240401575440    1.52573798318396    0.97335475849794
O          -0.98788034665770   -1.45387839556606    1.93925688192020
H          -1.76682448290383   -1.56605733776346    2.48590389919964
O           0.19916889012886   -2.93555394203826   -0.15882185335912
H          -0.63211343718723   -2.53923562939804   -0.48704951966128
H           0.11873611815537   -2.87643357220707    0.80148908480551
O           0.24635533633369    2.72506006192536   -1.05571921344193
H           1.02048992728944    2.38654599678310   -0.58004193207817
H           0.05505953619183    2.07726349778899   -1.75651081065001
O           0.19263282378935    0.93379366949335    2.29297328161398
H          -0.09493648032883   -0.00317035890043    2.31346593253522
H           1.38657781770560    1.11353641260782    1.24587389420282
H          -0.53030778686313    1.38029846930309    1.83264010801393
N           1.41048744446393   -0.80717052611518   -1.16491040883967
H           0.52749916402132   -0.31846648192045   -1.58158898942770
H           2.07324931925020   -1.01003348280626   -1.90556877361365
H           1.81835417190144   -0.14829123752994   -0.47470771552010
H           1.07157248418573   -1.70269185151048   -0.71191206224971
