    26
        -50.45916322  Gyration_radius:  2.70775475312 Dipole_moment: 2.852
 S           0.40288525764909   -2.36638203786835    1.28247101398776
O           1.65447861350522   -1.63600878782964    1.45929623346377
O          -0.06220813988209   -2.33163426849173   -0.09237481440878
O          -0.61361632530134   -1.96171587569736    2.23424206488508
O           0.73266200645296   -3.89199212973849    1.59052669705089
H           0.91798609048446   -3.88883242329295    2.52522479220103
H          -1.30318668469569   -0.69767836443557    1.47125406647943
O           1.14909432142186    3.21380147894465    0.47998032298577
H           1.16082450377342    3.75237923580217    1.27172520374220
O          -1.53032658368176    0.04017176035003    0.85319345816742
H          -1.90165445353529   -0.38008256977572    0.07123528126354
O           0.78110899419196   -0.95578232348460   -2.10441730308612
H           1.19484351308739   -1.53582209744871   -2.74448692888183
H           0.46881135667973   -1.54464902829423   -1.36460109845206
O          -1.40540153056617    0.69463874205065   -2.15629084927494
H          -0.64227510572656    0.09083674024169   -2.21448179825111
H          -1.75937247650841    0.77994526321704   -3.04188551308557
O          -1.38256103376458    2.65668041593500   -0.18295996961428
H           0.20939885276315    3.17531272452394    0.18246830217778
H          -1.40543999454385    2.12624885604745   -0.99642189118379
H          -1.69710136995415    2.04969796016435    0.49821398143486
N           1.03016824024440    0.54265878577715    0.19514677182965
H           1.47384516041600   -0.21704697957572    0.78036769479280
H           1.34203034416703    1.51354793125632    0.39917856860741
H           1.18636645822342    0.30497862103722   -0.79074121693441
H          -0.00135999493355    0.46672839060092    0.39413695001601
