    26
        -50.46212542  Gyration_radius:  2.57866420518 Dipole_moment: 3.955
 S          -1.70834899042770   -1.18075353483708   -1.12176861227220
O          -1.34126675333299   -0.85031486689946   -2.48039040759106
O          -1.92781148052685   -0.01575250035563   -0.27157295729307
O          -0.78689941869832   -2.11336001340560   -0.49458924835259
O          -3.11411781139392   -1.91034331066948   -1.22840789128965
H          -3.08979280831213   -2.17960824030844   -2.13978778223259
H           0.75299122281026   -1.90399859288088   -0.31471500396165
O           0.01729719575270    1.78318438801852   -0.49736480951835
H          -0.84406192028795    1.31765328088894   -0.48693366330256
O           1.72603854054359   -1.72075292456916   -0.17924894296800
H           2.13687603694541   -2.57948113426205   -0.07096333064655
O           1.68542902255087    3.01270010352110    1.48372196240096
H           1.07725631171967    2.91859391715858    0.73680311596689
H           2.05413721587063    3.89434216362150    1.42341216316433
O          -1.38731935263849   -0.48492214499860    2.24923951075039
H          -1.65625529658963   -0.44557614007325    1.29974064441487
H          -2.01465616434841    0.06705303876668    2.71955274063239
O           1.10908131140012    0.16468710204964   -2.25356362363049
H           0.49641623206711    1.37799927066436   -1.26347046109937
H           1.55338800928058   -0.50829240623527   -1.72204532320114
H           0.24423413444377   -0.22035767052059   -2.50446092958833
N           1.02798475581801    0.30580929810920    1.45200180450313
H           1.49942874822416   -0.49704464151082    0.99040823731090
H           1.65021777269865    0.86558871828028    2.03029909600600
H           0.65720537962040    0.93862196773667    0.67457321528204
H           0.18254810683939   -0.03567510728761    1.96953049646240
