    26
        -50.47114512  Gyration_radius:  2.41077483631 Dipole_moment: 3.641
 S          -1.96182937231061    0.35590399205960   -0.21973418759671
O          -1.28888510901435    1.54146116147576   -0.72524820930911
O          -1.74260619246864    0.13138277083233    1.19918529016434
O          -1.66920079497698   -0.82283842651768   -1.01699626334847
O          -3.51350986248014    0.63311532698327   -0.37195288747726
H          -3.59055400884155    0.85492329891047   -1.29368147090465
H          -1.27238395983921   -2.50389452552315    0.28382811295814
O           2.09293117239527    0.96808126920985    1.04185273604621
H           2.78622704877608    1.34918074406053    1.58180669146525
O          -0.87302055281572   -2.32141674182270    1.14296824768641
H          -1.24682436430969   -1.43937574429387    1.36772315212154
O           0.74487486064428   -1.17150856140329   -2.07636338494001
H           1.02327158256313   -0.22935873702078   -2.17035881823371
H          -0.20837480580512   -1.11618421228672   -1.85165878861598
O           1.23227133954525    1.39198526871495   -1.66547685767002
H           0.29884874425736    1.55858722245965   -1.43296544810480
H           1.71274313773449    1.39266406075393   -0.82675608565112
O          -0.14269874727096    2.17295307936547    1.59305336942844
H          -0.46051431247125    2.40503981127670    0.70505656195732
H          -0.74425851124263    1.44213805572002    1.82564006586326
H           1.24819467580897    1.44128331415360    1.30478183881008
N           1.54159411675841   -1.61704767659803    0.34072961485990
H           0.63378735239241   -1.94774644852959    0.78728873288580
H           1.80304983364197   -0.68233630251077    0.70989217970715
H           2.28835336613408   -2.28672556811929    0.48687184825573
H           1.30851335321921   -1.50026642134698   -0.71948604036822
