    26
        -50.46116945  Gyration_radius:  2.61883869118 Dipole_moment: 2.785
 S          -1.51964407396653    1.38809131165097    1.18525590225017
O          -2.49688951645368    0.75925731259715    0.30530326915855
O          -0.93642382797785    2.59608576219491    0.66333922709621
O          -0.49256572430806    0.42471126272839    1.59371526611534
O          -2.32658359461977    1.77087977377600    2.49696034015799
H          -3.05057726830883    1.15275368443857    2.47605609579941
H           0.98693736412483    0.99354684150207    1.23277567030165
O           1.88396190744030    1.29840275285681    0.94261591361910
H           2.08394492094441    2.05917830600284    1.49000091472841
O           0.28095157240104   -1.88035559601322    0.42799012467729
H          -0.04467920198448   -1.22291411805908    1.07069089544223
O          -0.86409234496268   -3.01965833683081   -1.93687797674557
H          -0.49581225294419   -2.93680142403825   -1.04625261497708
H          -1.08885801340810   -3.94306173474663   -2.05412795225960
O           0.61590279281444    1.96706738835008   -1.39851816217151
H           1.35118527553221    1.75787154897297   -0.79835624501176
H          -0.02108114571697    2.41589716989135   -0.80473171545626
O           2.88963120789860   -1.17022580757809    0.39185813083589
H           1.25656891810685   -1.79834770013111    0.45409120393838
H           3.36598985259821   -1.08737198875847   -0.43557606359911
H           2.67373152773895   -0.26404539226931    0.68064741968586
N          -0.81133370480967   -0.25441891196128   -1.41925371029887
H          -0.20131069740614    0.58530356428291   -1.62395326259377
H          -0.29671408005688   -0.92983489351825   -0.79795002283601
H          -1.62638766750204    0.09744489727341   -0.84723928213208
H          -1.11585220508901   -0.75945567246454   -2.24846337564636
