    26
        -50.46134447  Gyration_radius:  2.5146161729 Dipole_moment: 7.813
 S          -1.46071256009447    1.56114614361914   -0.60295726460179
O          -0.15022622614564    1.35952335912641   -1.21153608812825
O          -1.62654752289120    2.78482172551068    0.10734298996488
O          -1.80973192572240    0.37714952376328    0.21167153025518
O          -2.48791985859496    1.54567256120328   -1.81217722991798
H          -2.14820886197090    0.86720391540181   -2.38803917505960
H          -1.47322158240146    1.06931569567064    1.76477896526538
O           2.12996186116835   -0.69503689642548    0.98431496590411
H           2.74873112417179   -0.81546038295990    1.70524126879160
O          -1.04366255246724    1.53816684122992    2.50334964847179
H          -1.35393067055634    2.44404827397767    2.41064877500037
O           0.06243749276030   -2.70557303359967   -1.84506847910326
H           0.63697229292574   -1.90749671683607   -2.00446086879415
H           0.57016467467275   -3.46391297302757   -2.13639058087502
O           1.58529849911360   -0.57995473752448   -1.83876600426667
H           2.07493527852535   -0.61969568397705   -1.00700484765272
H           0.98708788161792    0.18605836905563   -1.73951388644528
O           1.22853659793120    1.70368932442922    1.05792720511275
H           0.79106759768500    1.78868586916677    0.19137132311727
H           0.50330525132939    1.72249300728851    1.71873964648517
H           1.84835068773326    0.27694561099689    1.02168856995661
N          -0.32257014820932   -1.70789287761704    0.59808176827868
H           0.64245458679647   -1.37857056064699    0.84909628450048
H          -0.93340678908145   -0.84489360356925    0.41626963727716
H          -0.26626934034887   -2.24885807188139   -0.29963377269504
H          -0.73289578797488   -2.25757467236723    1.34502563915260
