    26
        -50.46507307  Gyration_radius:  2.55386714188 Dipole_moment: 4.276
 S           0.73769856100369   -0.51100048263920    0.43920430546041
O           0.24382000906920    0.44231893599112   -0.56400411225208
O           2.03127717427394   -0.06885806675992    0.94655707830490
O          -0.24309135148738   -0.69949201238682    1.49895481092379
O           0.94829993468074   -1.86485582826567   -0.28540324714814
O          -2.74006360092037   -2.25587097962221   -1.26429913275576
H          -3.16290071785610   -2.86026054025218   -1.87606684176569
O           1.37257658164108    2.75709955762670   -1.14235432703215
H           0.88367940695683    1.90738692637289   -1.03920201860653
H           2.04364677102072    2.59326145479227   -1.80664523307925
O          -0.67381541467017   -1.09668582393624   -2.51785831277251
H          -0.39465163107734   -0.43009222159773   -1.85605065739507
H           0.01933041774242   -1.76220680311726   -2.49749442130460
H          -2.06750327428217   -1.75896435159105   -1.78442426773964
O          -0.95999391526071    1.79555545478978    1.76604576061828
H           0.55814962723529    2.32657948578114    1.72522032528393
H          -1.37042693886694    1.95180557635625    0.91120071825795
H          -0.79044139697895    0.82269660281998    1.78698444749087
O          -1.06152012436638   -3.08709797067887    0.65252754143472
H          -1.07845623306576   -2.36985444178353    1.30611457837417
H          -1.77480398612400   -2.87259410021732    0.00864633716867
H           0.20604019159455   -2.47708288293850    0.05001977406487
N           1.58842752683981    2.40402632129274    1.48015583514395
H           1.65258718293878    2.82248447320864    0.52438522633686
H           1.90769014016055    1.38301364576668    1.36088239919053
H           2.12444507984722    2.90868807106081    2.17690344383804
