    26
        -50.46507285  Gyration_radius:  2.55339615031 Dipole_moment: 4.275
 S          -0.98703482184413    0.10476666000693    0.13762203886781
O          -1.77112020119011    1.26295604091956    0.54980325054148
O          -1.75866106554279   -0.61150239117960   -0.99988707992586
O           0.29676849338053    0.54679110749623   -0.42427653249697
O          -0.77620420415992   -0.84247388958786    1.22334345315284
O           0.89099649010347   -3.34895995411276   -1.47177776833209
H           1.00312364322530   -3.99701233460810   -2.16877644468452
O           1.18269514746323    3.03306797620756   -0.41355334393867
H           0.94553622561251    2.08098206464482   -0.50806015543395
H           0.83147535845505    3.46819768674009   -1.19187830943104
O          -1.44058882119302   -2.99281473191745   -0.19889129875010
H          -0.59401400527606   -3.26213376956896   -0.62323625533160
H          -1.18895133220893   -2.57947496627866    0.64236425720074
H          -1.73951212262716   -1.60293710782718   -0.76568822709309
O           1.22743919909364    0.37427566786408    2.37028116092353
H           1.89472545135660    0.29767031287840    1.68293720816893
H           0.52539012723775    1.81768387458890    2.26239312615975
H           0.48124443942312   -0.19218421586675    2.05733677316457
O           0.59550446710697   -0.93611423954398   -2.60118100317253
H          -0.31883282140922   -0.92183772025849   -2.89704894937538
H           0.60861637141695   -0.35362333925536   -1.81325748739047
H           0.90760628619529   -2.46603034515907   -1.90760694455877
N          -0.06001194038015    2.62470380902902    1.89676832467572
H           0.47867915661987    3.07739297661447    1.12373195196499
H          -0.34023161126543    3.27225174875364    2.62453035385853
H          -0.89463789954972    2.14635906935083    1.41400789125452
