    26
        -50.46800947  Gyration_radius:  2.45872284257 Dipole_moment: 4.791
 S           1.48857251433282    0.91333446643508   -1.11061126040449
O           2.40810534723643    0.04279735254744   -0.39055558037024
O           0.95717141405097    1.97894247048121   -0.29904900876750
O           0.44887730113774    0.12264173703830   -1.77087626165630
O           2.32635779071199    1.59610009277333   -2.26566779469392
H           2.72853159549078    0.85462328670130   -2.70633117186271
H           0.41251350941649   -1.15438300665189   -0.82129397752250
O          -1.53474503755770    1.70869364266579    0.63048342189479
H          -0.68735545274842    2.03097229918252    0.26349757700442
O           0.43979620915770   -1.85961076769316   -0.12256048643989
H           1.37961982905426   -1.94261460459541    0.06713360224041
O          -2.28446564472945   -2.29229237424170   -0.30538845824411
H          -1.31964051492672   -2.37097240037564   -0.27999237472044
H          -2.60064791816120   -2.95460793087237   -0.92156403273468
O           1.94877404632802    0.90712173606902    2.04564722746086
H           2.27602588771082    0.52804561857109    1.19807505058182
H           1.74747841069199    1.82025185154064    1.81448710533013
O          -2.26693142404858    0.26321629265777   -1.44548081429693
H          -2.43447611398677   -0.61215976986683   -1.05701077390083
H          -1.99544579960774    1.29364655894312   -0.14165241147581
H          -1.34662872214093    0.24494188332832   -1.75872526724460
N          -0.43227639801434   -0.24592379853494    1.90115227585651
H          -0.24413568529744   -0.98375944705638    1.19011900983848
H           0.50492878264418    0.18241667347610    2.14873678751194
H          -1.00918985239534    0.55445537315629    1.42760571235548
H          -0.91081408433360   -0.62587723568525    2.70982191422282
