    26
        -50.47071265  Gyration_radius:  2.41592308598 Dipole_moment: 4.175
 S          -1.52579374861833   -1.30020913415299    0.30587188817279
O          -0.49998744856159   -2.09354005761595   -0.35097592240292
O          -2.01316930810376   -0.19464966592326   -0.48291716506879
O          -1.10183216623084   -0.87505207692717    1.64146582630866
O          -2.75784853010263   -2.27096310952762    0.52147353290275
H          -2.34270809796085   -3.05515094321922    0.86384952110280
H          -1.36158492017702    0.74938113630377    1.69731625566406
O           2.48814343300378    0.35690883976168    0.27600591403777
H           3.40081069102388    0.43127636200025    0.55674765089276
O          -1.53495209224245    1.68680874489553    1.44767453667265
H          -2.23653071763828    1.60580068373134    0.79177784775699
O           1.19702949462769   -0.81219765008012   -2.01654774253596
H           1.82432412214361   -0.47150376849363   -1.36501651644621
H           0.57768117251550   -1.38073022612732   -1.51999176447685
O          -0.55018201376544    1.15577444494607   -2.25230218067387
H          -1.25892165277066    0.68153632199202   -1.77210774617746
H           0.11637319858623    0.45174744966162   -2.43601341925312
O           1.38650572512367   -1.66347058718795    1.48147095945760
H           1.06280059501756   -2.17390583689112    0.72267204282199
H           2.10042334796539   -0.40916703620031    0.79328608861370
H           0.55088865661564   -1.30887276829847    1.84484952401529
N           0.51530886849994    2.20158069863977   -0.13976264484357
H           1.32088097559487    1.58697095342676    0.08587807937780
H           0.09495624036214    1.86300272676036   -1.08872221132111
H          -0.25573534178834    2.06621074975950    0.58155463938111
H           0.80311953663293    3.17241376882623   -0.18753700387546
