    26
        -50.45954220  Gyration_radius:  2.65270737175 Dipole_moment: 3.134
 S          -2.43148300495083    0.06623420133093    0.81591419758755
O          -2.62984329626985   -0.49438999326330   -0.51613184431376
O          -1.96122642627495    1.42932780862392    0.79131840635570
O          -1.58769070288264   -0.80124122183173    1.63657223962828
O          -3.86196117461166    0.08058942196572    1.50456079173900
H          -4.22009838775165   -0.77898890775973    1.30294934669844
H          -0.21793646562461   -1.46416359003351    1.14328244520762
O           1.17891740895575    1.85442494775665    0.03892834281922
H           0.97163473433694    2.77984007307224   -0.09862817020463
O           0.59161028753226   -1.83178440878494    0.69657143852745
H           0.47784813083267   -2.78324490811060    0.69119007300042
O           2.79517929790351   -0.37396338902826   -0.53055885061544
H           2.32130150825137   -0.97252665994877    0.05965119799969
H           2.49000429268639    0.51428413213281   -0.29621144585732
O           1.80028330980293   -0.59994272152145   -3.04448891429765
H           2.30515551706859   -0.58687351999535   -2.20224013289664
H           2.41465668723554   -0.35383117158524   -3.73551282806264
O           0.11215582865194    1.35100343756815    2.38180287210874
H           0.89090318628277    1.65984844424826    0.97126274110648
H          -0.74757620697405    1.51340247465864    1.93429936484290
H           0.05543744887147    0.43334835644351    2.66289297937567
N          -0.16385105647914   -0.11760320779093   -1.26961662400037
H           0.21776498639479   -0.22917866022594   -2.22002165237483
H           0.18778594272881    0.77449905032800   -0.85655366363881
H          -1.21203929998661   -0.18621467909744   -1.18469357544574
H           0.22306744427176   -0.88285528915414   -0.67653873529124
