    26
        -50.46287141  Gyration_radius:  2.64514271539 Dipole_moment: 3.028
 S          -1.86175278634450   -1.00036072838852    1.04451412842537
O          -1.26601218060425   -0.10295815946495    2.02273023752064
O          -0.88527367738594   -1.86639045521554    0.40331458719911
O          -2.70105365007926   -0.29652435216929    0.08802251926202
O          -2.81580074672062   -1.97913458874647    1.85257341360736
H          -3.46314013593274   -1.40444177974864    2.24985031514903
H          -2.06365136604483    1.37638696986238    0.05309608662143
O          -1.31916291803613    1.93367576462203    0.34762880309176
H          -1.10670338011364    1.51679866079648    1.20117588708369
O           2.51914149703809   -0.22893975685567    0.08463848024765
H           2.89219477041616   -1.00645835728702   -0.33546901218661
O          -1.19367836132039   -1.02022433724705   -2.06493741063863
H          -2.06205903996832   -0.66011223543046   -1.84169924739079
H          -0.99015360811169   -1.56174513551451   -1.27333770613343
O           2.97416678509008    2.05078987234610   -1.63093363549957
H           3.10210282710084    1.40129896113977   -0.92668542566854
H           3.66708223026656    2.70475250121765   -1.53492379980392
O           1.12700524863567   -1.29699991684765    2.00632946807204
H           2.06803196050854   -0.57259050828295    0.90887295296835
H           0.51161402708958   -0.66917098514334    2.41394345498911
H           0.52820534597984   -1.79625939825417    1.41795762269068
N           0.47050539888749    0.90431180047558   -1.31499706395264
H           0.95709631211799    1.52689196097577   -1.95986162100708
H          -0.12627502331093    0.17656997727868   -1.79760938630949
H           1.20488882583125    0.42234334038749   -0.74883436627969
H          -0.16731836497495    1.44849089548621   -0.66535927206624
