    26
        -50.45360775  Gyration_radius:  2.42575045792 Dipole_moment: 8.130
 S           1.59865775575122   -1.43597575943985    0.91199483560205
O           2.93255524954455   -1.48009390443611    1.40382349929012
O           1.52404165666205   -1.53567606053598   -0.57326308222598
O           0.99379652161603    0.01563907000665    1.20040457892502
O           0.63789608338651   -2.33280134414913    1.52907549819054
H          -0.72879127538591   -1.61022347141016    1.55051917015955
H           1.30014950144561    0.54080954765302    0.43123826333880
O          -1.63789964396686   -1.21634921361911    1.38103401883826
H          -2.22080285213019   -1.60381891365140    2.03529396456739
O          -0.98714788403944    1.03674358644880   -1.95979138164876
H          -1.44817529653702    1.65798017474349   -2.52403233641058
O           1.66498446978409    1.07725020915085   -1.12694005288578
H           0.80839525304217    1.15059617400019   -1.58479576574826
H           1.93494103651484    0.14865084815737   -1.23462177336316
O           0.76916489879703    2.85541755815311    1.04783383139748
H           1.15265858925944    2.32546367586410    1.75234772117357
H           1.29262010450273    2.67576886897341    0.25799451795076
O          -1.54754332943953    1.48927625047545    0.51168189576659
H          -1.47598260498408    0.64654288170837    0.98716303601137
H          -0.80277956439691    2.04553581201221    0.81579518971887
H          -1.24996862634230    1.26673328604570   -1.01183443520717
N          -0.93209861388158   -1.55857198729607   -1.18176228092392
H          -1.41825362600196   -1.50646991617192   -0.25988116933198
H           0.14997168479626   -1.63197888331069   -0.94601401973882
H          -1.24069599959519   -2.35642527788195   -1.72505444496814
H          -1.06969347840554   -0.66402318148714   -1.68820929847995
