    26
        -50.45059459  Gyration_radius:  2.46315502489 Dipole_moment: 4.140
 S           1.94311016749089    0.35640509413526   -0.31838072557493
O           1.40303667394368    1.64133158595763   -0.96814879930777
O           1.23836897495459    0.15167316133344    0.93270842036284
O           1.49123601627614   -0.75510431047908   -1.30556345971715
O           3.35535709927983    0.36730575355374   -0.23717832108651
O          -2.22908275979372    0.34469506987702    0.02182456734434
H          -3.16794404625466    0.26287349869136    0.19145900254649
O           0.65502286704313    2.17232711376466    2.58895928764802
H           0.92209120106430    1.33248649727720    2.16902925720563
H           1.46405879107320    2.62875604119245    2.82484331181458
O          -0.60254878632411    2.50156863499862    0.25881255007267
H          -1.27067040667119    1.78649936207954    0.24949388044411
H          -0.27470568436624    2.55041057825212    1.18385846508688
H           0.57238714657122    2.01978774399070   -0.45737760931082
O          -0.91754068533862   -1.44836609975449    1.29697961540112
H          -0.72169346205584   -2.17824476834452    0.66428887913161
H          -0.08613939889965   -0.94901834444880    1.36689547217938
H          -1.77185984886540   -0.37115331956263    0.57475924789790
O          -0.74480950749979    0.14605091232046   -2.18852770161730
H          -1.38368136871527    0.18321044013521   -1.44211884009378
H          -0.53611479181443    1.05653302165497   -2.41567819998999
H           0.60442465722643   -0.46272778639710   -1.68090256997407
N          -0.11747019768088   -3.21208926403695   -0.62199432813375
H           0.68117378888655   -2.66405790932922   -0.92597464937841
H          -0.72405803925091   -3.33698399364378   -1.42268648198656
H           0.21805159972079   -4.12416873321912   -0.33938027096374
