    26
        -50.45360773  Gyration_radius:  2.425759293 Dipole_moment: 8.131
 S           0.79221409665373   -0.38796442180094   -2.16131284516353
O           0.83210100454592   -1.61149262258181   -1.31104288995951
O           1.94120792562182   -0.25055158533102   -2.98838978831318
O           0.79264844931275    0.79270680005347   -1.08326261858981
O          -0.50313033712312   -0.26006499894033   -2.80465514089773
H          -1.46188534523259    0.41144620705889   -1.79452923120876
H           1.35776907555761    0.43747577592892   -0.36508317616261
O          -2.11592739657150    0.66184677143615   -1.07352771306151
H          -2.86682536535419    1.05373028769462   -1.52133923541962
O          -0.28984930841783   -0.78091130434575    2.27986678689388
H          -0.40462085411869   -0.78659578576761    3.23046738951771
O           1.73708053537071    2.37200807297947    1.09601680554134
H           1.80312955473089    2.55403554305285    0.15434422484094
H           2.22170994045002    1.55221385051060    1.24814446708037
O           2.05974526229252   -0.54580578216431    0.81302246636909
H           1.94586099755240   -1.22045645459718    0.12121862816217
H           1.35392240289832   -0.72071392993664    1.46114783342012
O          -0.86584901881293    1.53918807704467    1.32463940615682
H          -0.53196032979377    0.15008369511646    1.97128896846910
H           0.00460067346140    1.97972097888977    1.25493269140556
H          -1.18494183789018    1.41125890123282    0.41732524570760
N          -1.35459571658918   -1.69108513871462   -0.04027681860061
H          -0.42114890221023   -1.73040951841970   -0.63968390403424
H          -1.90042235801338   -2.53625688365168   -0.16159270808190
H          -1.07223933508112   -1.54656384283734    0.94711477578044
H          -1.86859379323555   -0.84684269190839   -0.37483362985333
