    26
        -50.46886190  Gyration_radius:  2.50866523669 Dipole_moment: 1.109
 S          -2.11529113923911    0.18045760148778    0.64992728271257
O          -2.52153606006210    0.56933179455681   -0.67085918941871
O          -1.44471455920185    1.24452085402367    1.39520467310770
O          -1.30261111289642   -1.03824610824791    0.65923734343038
O          -3.42613664909204   -0.16218303862044    1.46566740234445
H          -3.10589633512086   -0.30955393709129    2.35026319241316
H          -0.58280577056788   -1.55162740731231   -0.68936210140099
O           2.44215799045436    0.42270571274311    0.85339684746653
H           1.90679436916837    0.04851337379178    1.58765182567473
O          -0.12887925040423   -1.82922300577644   -1.52500624679410
H          -0.54218377510664   -2.65377066494581   -1.78542561060281
O          -0.47768485986487    0.76607135643125   -2.34601839193636
H          -1.36501885652540    0.78398717795269   -1.93156006868294
H          -0.23372376272467   -0.17373889525277   -2.32572967720718
O           0.48958491091172   -0.37415627008530    2.51911557601321
H          -0.07851201685566   -0.82728393168190    1.86766701213843
H           0.03517727653423    0.46176588721325    2.67187416848214
O           2.53128249867391   -1.53354186585108   -1.01082188765600
H           2.60653446270191   -0.32427009974137    0.24305557159622
H           1.58586806243737   -1.71820545020683   -1.16953398607187
H           2.92251239415782   -1.34983769702062   -1.86591692786008
N           0.56969026996448    1.89441349649069   -0.19511874256056
H           0.79344919772824    2.88085540836594   -0.27075274043316
H           0.26948724412790    1.50471987554645   -1.13569542348372
H           1.41127384266515    1.33650067011728    0.19610453334288
H          -0.23881836190117    1.75179515313449    0.46263556539968
