    26
        -50.46982051  Gyration_radius:  2.50057101733 Dipole_moment: 2.033
 S          -0.68518427516536    1.54333891685379    1.28481467780695
O          -1.85570542439505    1.66546485040725    0.45064654090565
O           0.55466372853246    1.71325285919545    0.51982720345391
O          -0.64041948324423    0.33620015181439    2.08760312989915
O          -0.74493804678087    2.75604168248670    2.30143596151847
H          -1.30652222959173    3.35508184098283    1.82216134669699
H          -0.77362893821453   -1.05455574759059    1.30785305459762
O          -0.67784551983687   -0.27607102498399   -3.17072225923691
H          -0.75366344012589   -1.11694227877440   -3.62420336103256
O          -0.83350927753708   -1.89564091300342    0.78425964041786
H          -1.27952972702252   -2.52794687872937    1.35019537047563
O           1.80275497049989   -1.76821636606859    0.04874566442483
H           2.09261159477605   -1.21377591001237    0.81005456846945
H           0.88945472955329   -2.02803688829535    0.26582126408971
O           2.10274422542024    0.07831608024148    1.96475920232298
H           1.67753189546227    0.79741252965214    1.45987568748013
H           1.45153920957744   -0.13584566304359    2.64005640996593
O          -2.26396741903804   -0.46386360288511   -1.11247040226013
H          -1.37733123511392   -0.28658959668137   -2.45834899924708
H          -1.84159370117465   -1.11801699778499   -0.53186389300993
H          -2.24551060811721    0.37189540990702   -0.60513798372632
N           1.35195004079562    0.25929792980435   -1.54081104468110
H           2.17140409206485    0.65953015472465   -1.98438780181178
H           0.59769538679594    0.06156381657707   -2.25185765694685
H           1.60463607405435   -0.63614500685230   -1.00389320491754
H           0.98236336783273    0.92425067205305   -0.81441309565616
