    26
        -50.46765360  Gyration_radius:  2.55114972508 Dipole_moment: 1.885
 S          -0.07521632430679   -1.50602920520160   -1.53159635263859
O           0.16489165849033   -0.21181780266045   -2.15512792232654
O          -0.84499322640641   -1.34708087642597   -0.29460045696784
O           1.09998912537837   -2.31515156724649   -1.37649230744437
O          -1.04158231611975   -2.30185705809486   -2.51377745682935
H          -0.44093676869044   -2.87817550122611   -2.97557644931327
H           1.75442029868923   -2.32564736778624    0.72558405996049
O           0.24380725720706    2.00775924155622    1.54737226454313
H           0.37433203662194    1.43004082719863    2.32657086662019
O           1.25343460263170   -1.71424023344725    1.27568703684978
H           0.38607681679621   -1.66299912340455    0.82638046724111
O          -1.44365767450069    1.85926149358058   -2.27402960114782
H          -0.86412657586052    2.60173886994376   -2.45618234685729
H          -0.88115405090556    1.05566812741863   -2.37209557745045
O           0.78839900988682    0.05780203118495    3.34788381621222
H           1.59693041877517    0.13320878427705    3.85718821839150
H           0.93468450807440   -0.65977361958528    2.70962451183307
O           1.76664496817508    0.63551622464326   -0.14941913028880
H           0.91279694038475    1.68896555970240    0.89703538677538
H           1.82405723228548   -0.18288085365128    0.36981895545818
H           1.30620641864800    0.39209572912513   -0.96928984321224
N          -1.79199038318457    1.05657444417889    0.24899343476339
H          -1.80968027208255    1.52080859463682   -0.69134109370514
H          -2.69721788885761    1.09170509881326    0.70335907152704
H          -1.49968143118696    0.05967167533170    0.07204967548988
H          -1.01643439993796    1.51483649716223    0.85198076249384
