    26
        -50.46105820  Gyration_radius:  2.61927344489 Dipole_moment: 2.983
 S           1.82399101799490   -1.14518669401422    0.64888926902402
O           1.01957111726443   -0.63362944853547    1.74149191619369
O           2.35214708002817   -0.08685223289219   -0.20689077108578
O           1.15659498880622   -2.17595424445686   -0.12426378809601
O           3.08379237084169   -1.83903586454886    1.32272935080448
H           3.47238104894796   -2.32091433241206    0.59936971378191
H          -0.42864359762697   -2.03738869855127    0.27704792308434
O          -0.80556687682636    2.79279070550352    0.56958533432705
H          -1.26669528685694    3.05849471247414    1.36618197753890
O          -1.21795636936977   -1.63480109831420    0.71513670325901
H          -0.83263876526540   -1.31710400323120    1.54374571168237
O          -3.49093967453527   -1.14484943189385   -0.96332358067919
H          -4.00547254371823   -1.86202187060863   -1.33499623732695
H          -2.90030035745080   -1.54074951043219   -0.30675006139074
O           0.88792681618774    0.46035145278315   -2.29050863785500
H           1.28503066573702    1.26999403475638   -2.61746620395631
H           1.47662747832869    0.14916032124035   -1.55854110407799
O           1.53207664373262    1.92231909976109    1.38838541381174
H           0.11721916792836    2.55401056581403    0.85894302464511
H           1.28586730905971    1.07106330036865    1.80069449709673
H           2.09102007669577    1.62229636089201    0.65766428324902
N          -1.33868195377958    0.58201187956894   -0.82609096437805
H          -1.26212758443672    1.48327759720852   -0.29226567777206
H          -0.54671212852075    0.53604929004471   -1.51653732986855
H          -1.24310042467788   -0.23485424477708   -0.16987695141381
H          -2.24541022848864    0.47152234428309   -1.28235379057979
