    26
        -50.46507302  Gyration_radius:  2.55374219515 Dipole_moment: 4.275
 S          -0.11339471124555   -0.97658426003937    0.18343251706348
O          -0.65751499463155    0.35864184921173   -0.09993704179651
O           1.26279504504955   -0.88461566453080    0.65045969347375
O          -0.97919372013446   -1.67301070104920    1.12765240788313
O          -0.13066143673485   -1.76681317973454   -1.14984613773864
O           2.24483268066438    0.64573518946418   -2.95539467112319
H           2.46774574252808    0.72499367694083   -3.88405156756586
O          -2.71728211520985    1.45153901858135    1.13684982811923
H          -1.96422021725341    1.13769012427842    0.58368528644749
H          -3.51154948512242    1.16542470099606    0.68325645044118
O           0.96482978668028    1.17467362674717    2.22542909594440
H           0.74957179581020    1.85613009183185    1.58285152662683
H          -0.39791024570205    0.60195178890508    2.85993127510937
H           1.23037118675748    0.39421066095110    1.68136987258910
O          -0.42572655281687    0.60502841353127   -2.72935420875317
H           1.26819441612008    0.75575664971611   -2.89342301748420
H          -0.67032385527059   -0.29340868345227   -2.96761667250758
H          -0.53750764708734    0.64092965952080   -1.75650629142685
O           2.35231677002525   -1.68813641431982   -1.64209192529828
H           2.43646979549262   -1.42980630494622   -0.71039950309813
H           0.84333277313243   -1.84352115932828   -1.43898180028105
H           2.45300407964574   -0.85452295211850   -2.15615318938959
N          -1.32917944889393    0.10012446323664    2.95240314136438
H          -1.23222682832396   -0.75495529239659    2.30592252902548
H          -2.05527070175949    0.70155761918314    2.50104712362075
H          -1.55150211166466   -0.14901293120148    3.90946528876399
