    26
        -50.47114545  Gyration_radius:  2.41069935195 Dipole_moment: 3.630
 S          -1.07846012829578    1.62413322406128   -0.46980425079314
O           0.03088229298815    1.57914756394146   -1.40783138890025
O          -0.65866525245002    1.82070202356231    0.90797500368776
O          -1.97031232997212    0.48654534731321   -0.61548969664064
O          -1.91518820973126    2.91014829354772   -0.86233235712908
H          -2.57272883567492    2.94125457017650   -0.17571038557043
H          -1.40686744350487   -0.66630762498077   -2.35620904074141
O          -0.47422537607143   -0.67747959500815   -2.60314728615817
H          -0.17046105239666    0.21681127130069   -2.32714243701801
O           2.26964598946409   -0.69640207668880    0.87428524836682
H           3.19259940249301   -0.85203019199372    1.07786322732654
O          -1.61723293943853   -1.70110477523153    0.85423913155120
H          -1.93441948063133   -0.92740972172026    0.34130188291843
H          -1.18479530491188   -1.30157919065546    1.64629157806190
O          -0.07991505131428   -0.29256675231067    2.47610193765306
H          -0.33903834323480    0.54124175731189    2.03927102612115
H           0.81159108700940   -0.48674009951171    2.15698310307106
O           1.95075064724378    1.83110034726197    0.36016373297750
H           1.20697428299690    2.05765101645954    0.94113407246757
H           2.19710123268890    0.28036772992606    0.65702204636513
H           1.51765068160712    1.82911627187049   -0.51362653183459
N           0.47017008746842   -2.12580066775750   -0.60787613730347
H           0.72670275874859   -3.08410731426709   -0.81599615503400
H           0.19997853184694   -1.59801100316857   -1.49175499265253
H          -0.41314419004363   -2.07619466550061    0.03195756643736
H           1.24140695446629   -1.63248573727150   -0.11766887550607
