    26
        -50.47301025  Gyration_radius:  2.48559724554 Dipole_moment: 3.134
 S           1.99892845839316   -0.30085942990642   -0.05537569071328
O           1.57527282062683    0.78156873889771   -0.93205295805368
O           1.00852945726037   -1.35634747412863    0.04913196079207
O           2.45240272315265    0.18844050336537    1.23238676363276
O           3.25786321293165   -0.96985891041488   -0.74858863953339
H           3.93119984864106   -0.30241451067321   -0.66588027530646
H           1.27239303670258    0.75991794649963    2.13726291402754
O           0.48681004824202    1.11693749909855    2.63037135325335
H           0.83075450251263    1.46504501791559    3.45457989863403
O          -2.16765936125984   -0.90328444570153   -2.31727189068378
H          -2.45067650276649   -1.81822963384686   -2.35561546600206
O          -0.35283903909087    2.17202657839381    0.22114205409272
H           0.38485434815245    1.77693314839029   -0.29353639824075
H          -0.10396588003596    2.03866711106968    1.15117765729197
O          -0.95644796576397   -1.07928940869364    1.81337850132382
H          -0.23134571491059   -1.36799821191900    1.22017900446399
H          -0.55722747823936   -0.37205289006291    2.34805001275197
O           0.44519327390505   -1.05747191009454   -2.51649711780002
H           0.83703310926257   -0.17949633961117   -2.40210644094099
H           0.63392178503491   -1.47655813480419   -1.65759049997365
H          -1.19010008610542   -0.91966382212700   -2.50404663569993
N          -2.24847287737655    0.36250266733334    0.03370613182417
H          -3.17649782841164    0.68692251904136    0.28127278110156
H          -2.26317838578231   -0.12005327698472   -0.90239418852016
H          -1.55822255884825    1.17719650902864    0.00686693196531
H          -1.85852294623951   -0.30257984013425    0.77145023638679
