    26
        -50.47301030  Gyration_radius:  2.48594578476 Dipole_moment: 3.136
 S          -0.58451845493237   -1.22180050907961   -1.50297472302177
O           0.86078323430840   -1.05361983696693   -1.45309508319512
O          -1.30089706734987   -0.03174928753927   -1.08282834383962
O          -1.01622309691158   -2.42297815646645   -0.81418238442715
O          -0.95808014005512   -1.42315747380449   -3.03025351172114
H          -0.59901243827651   -2.28165994697374   -3.22962957798933
H          -0.85894804209028   -2.33205737359873    0.76836039868569
O           1.01859014400550    3.12377893210414   -0.31433456705546
H           0.36659739656927    3.81688416523080   -0.42915271632534
O          -0.70965177718579   -2.20593071569811    1.74281529216508
H          -0.96937929469938   -3.03069958308987    2.15644626000739
O          -1.71992911802521    0.34355047436038    1.51227287402907
H          -1.53801107487787   -0.56404866464758    1.80988715662882
H          -1.74703316241392    0.27335888315848    0.53487879962749
O           1.67113151659805   -0.98476298531344    1.06073366492028
H           1.51169455483063   -1.04632003367258    0.09322530036051
H           0.98479664243416   -1.54530098782509    1.46001468568519
O           0.51374507604020    1.46706467922072   -2.28677936432607
H           0.92647695656808    2.53746821494421   -1.11343646406073
H           1.07465880443071    0.68168076009551   -2.20886856903832
H          -0.34818006026797    1.13065287965682   -1.98196878675970
N           0.69342269731700    1.37450993005021    1.67820688334971
H           1.22834344131679    0.48150123530456    1.43924726504847
H           0.84872952346917    2.09299025532819    0.92390580588493
H          -0.33345953807347    1.08419103635213    1.68811945665628
H           0.98435328727892    1.73645409886709    2.57939022871953
