    26
        -50.47250253  Gyration_radius:  2.48717829954 Dipole_moment: 2.865
 S          -1.12964338908444   -0.01225215277007    1.96634288964069
O          -2.30453465188050   -0.03857657335495    1.10375667113642
O          -0.10345832940838    0.87740537903159    1.45731779645184
O          -0.64307490951554   -1.34580869024579    2.26444028734098
O          -1.60019601797147    0.60259380335659    3.34852538689863
H          -2.13044280581975   -0.10774612380423    3.69305356967167
H           0.06546755856070   -2.03286998965227    1.01303980625452
O           0.10728642011186    2.48182186069201   -0.70400251439079
H           0.09310314312995    2.13884687203975    0.20863203583870
O           0.55909327619243   -2.42021379816634    0.24336153820553
H           0.50952436937407   -3.37127301210817    0.34984776475972
O           0.11153223053975   -1.08394906215237   -2.09827396670157
H           0.25218964504266   -1.65007603839499   -1.31580839090826
H           0.87015648750307   -0.47295055187841   -2.11283251127283
O           2.07572122550728    0.78975503024899   -1.63052031344385
H           2.21271397221400    0.41781237346352   -0.71102970494509
H           2.94726770904348    0.98002714576441   -1.97789323729398
O           2.21796773854822   -0.24297971032097    0.75654289898322
H           0.88486015260189    2.06190657368576   -1.11530426073040
H           1.45487346406173    0.21216044535556    1.16617715674638
H           1.91567044303313   -1.15421725438856    0.62971545976054
N          -1.69872340995328    0.67754652623908   -1.32842421998887
H          -1.08031670714036   -0.09089619251729   -1.72296991324462
H          -2.02265552979090    0.38030834208035   -0.36254688193313
H          -1.07625777109877    1.52986951176638   -1.18841740659794
H          -2.48812433380119    0.87375526602792   -1.93272996024065
