    26
        -50.45251204  Gyration_radius:  2.4210184349 Dipole_moment: 4.242
 S          -1.04678792311742    1.32209288798640   -0.42156186897817
O          -2.40862499803231    0.89859429021654   -0.42936493849417
O          -0.18698149886883    0.61634775722703   -1.34555064199920
O          -0.46385138195873    1.17966099371573    1.01304355033192
O          -0.91226146351596    2.81850719189614   -0.65488612606352
H           0.09528979716581    2.93823035555093   -0.85383634218199
H          -0.57850204984868    0.24723511404354    1.39811656326266
O           2.34691609393130    1.46289413958121    1.00036925825161
H           1.59193047545343    1.66311129486148    1.56097097029654
O          -0.79347755129288   -1.16124917293146    1.98282690372079
H          -1.41154723705401   -1.10677497084115    2.71402056502184
O           0.57926466093345   -1.90342247883924   -1.57356069151452
H           0.27419033893348   -0.97236331019473   -1.55691534459887
H           1.13430074636685   -1.99408716613560   -2.34986684509083
O           1.54261253776212    2.71093010191626   -1.17464552670502
H           1.40393648370215    1.94453118624420   -1.74344379244126
H           1.97094741983357    2.34246587294930   -0.35484691974758
O           1.81930970204750   -1.19506158105139    0.81585302294362
H           1.10141758904798   -1.32884529546929    1.44441398496709
H           1.48978371548523   -1.54926760024433   -0.02708387569550
H           2.31554947129739    0.49014621947820    0.87520864928764
N          -2.04529786432504   -1.95098049724865   -0.12967559150376
H          -1.29844848195902   -1.58511031846591    1.19667708297886
H          -2.82024682452793   -2.59934601501617   -0.17833806147753
H          -2.36932093989820   -1.03184815799798   -0.42631724760825
H          -1.33010078755207   -2.25639084120670   -0.78160673698252
