    26
        -50.46537068  Gyration_radius:  2.50505055184 Dipole_moment: 5.426
 S          -0.95205213451771    0.49614265785412    1.82948235251552
O          -1.33076511394492    0.90820023971035    0.49699819041150
O           0.15202107313818    1.27667828624261    2.37334975442580
O          -0.68485002000567   -0.93408376486505    1.93294784949087
O          -2.20076300742754    0.78482036278752    2.75695531762731
H          -1.86974367517039    0.64205273453159    3.63849231834396
H           0.66417845799144   -1.28488043700426    1.14256595217179
O           0.25966766492270    0.20224057944303   -3.21635871347457
H          -0.47662217159904    0.17102622713941   -3.82842192621631
O           1.50097884749420   -1.44503165414208    0.63130475309704
H           1.93931030180409   -2.18026652662797    1.06309337860551
O           0.22500862803496    2.08640335449239   -1.36352179378655
H          -0.52741262233290    1.81451352111268   -0.80690186497183
H           0.24237153378255    1.45221590823618   -2.12388119166785
O          -2.20108188762336   -1.50161388137500   -0.27478867637037
H          -1.89234170235314   -1.81219853942089    0.58495218094262
H          -2.10133258057176   -0.53741167765783   -0.20600187500762
O           0.03704995998226   -1.96192500697048   -1.72143295746048
H          -0.85537092978489   -1.89445413179308   -1.31886736988267
H           0.22274906700455   -0.64694447911603   -2.70567696666091
H           0.65674430241798   -1.86870214794347   -0.98405153450626
N           1.87684664014581    1.25100107103828    0.41734317985209
H           1.99344137799424    0.22983802218124    0.31074311989792
H           1.28561554060769    1.64874546643072   -0.41743895518643
H           1.26718999102336    1.38076344332541    1.27549664642976
H           2.76916245893100    1.72287036250519    0.51361884136862
