    26
        -50.46507291  Gyration_radius:  2.55360770122 Dipole_moment: 4.279
 S          -0.76354128124038    0.19080728390241   -0.61889067983426
O          -0.25356368592516    0.26626790700808   -2.08054977341892
O          -1.88500512516595    1.11350709536394   -0.48804859260143
O          -1.13650815209749   -1.18639332619167   -0.32799043291354
O           0.34214456637283    0.62476191425653    0.24615478913225
O           2.55135075645122   -2.29871005095826   -1.54636807704780
H           3.29944564626708   -2.53119738322495   -2.09831330499072
O           0.21570385729630    2.59453439090401    1.99861169665882
H           0.42315478978349    3.40739817257141    1.53521132953797
H           0.39401368115203    1.86695089492525    1.35793272788781
O          -0.99707829654874   -1.04706958788416    2.27441785868391
H          -1.09880744543738   -1.25162577475619    1.31353910509672
H          -0.05607982024278   -0.88986616965474    2.39050255928836
H          -1.77545101754377    0.35999647436162    2.32830501230860
O           2.49527545247757    0.36775728716855   -1.27897206821793
H           2.11184607017800    0.68172627974633   -2.10249940645235
H           1.78165631333978    0.47918386074012   -0.61670625920477
H           2.62724976748693   -1.33338424043553   -1.36700952737389
O           0.04113278520006   -2.21675475661394   -2.48192092728055
H           0.96455026914148   -2.38476342020764   -2.18456614257091
H          -0.50906580487934   -2.31747755137056   -1.68881558061862
H          -0.13349475592365   -0.69957230264698   -2.38213980649876
N          -2.11748211176850    1.32893139757245    2.06047942176071
H          -1.34575429414193    2.00218702796761    2.26948993180881
H          -2.99619113647742    1.57488873483642    2.50186686577942
H          -2.17950101772484    1.29791585263477    0.98627928109508
