    26
        -50.46654164  Gyration_radius:  2.46912047468 Dipole_moment: 5.994
 S          -0.41473219406850    0.98456615670451   -0.39828583309551
O          -1.40132147737307    0.53224321417905    0.56059749079999
O          -0.96051035041685    2.19913063903806   -1.17931798613596
O           0.80073410111672    1.47599823951515    0.26703502131549
O          -0.06753719219679   -0.06559983016548   -1.35846955179333
O           1.30228968630903   -2.08820390613622   -0.34337515521715
H           2.29494952618579   -1.09756099471161    0.07544641783243
H           0.78308179169377   -1.49945283956963   -0.93299120928032
O          -2.51307789590077   -1.08629509040993   -1.37316249747435
H          -2.68850559881211   -0.94221299732659   -0.43690951766059
H          -1.56329222912898   -0.87376309608387   -1.47214050107370
O           1.37328254706288    0.65437931836129    2.74110605307887
H           1.05195322768228    1.08231616043561    1.91878367521493
H           0.95235797383634    1.12024651882775    3.46485827506587
O          -3.04561953890082    1.27125784705347   -2.40602391799068
H          -2.86275691368397    1.21614379440562   -3.34637260220324
H          -3.02390370892274    0.34031878638298   -2.06334670866411
H          -1.80404183433922    1.90752557432092   -1.62451855546383
O          -0.14148012268004   -1.47513998147107    1.76815046970228
H           0.74295763395622   -2.13672888259305    0.47219699208415
H           0.43066800009059   -0.95464900990053    2.35198333995425
H          -0.73817032280989   -0.81266414286456    1.36423241781573
N           2.80429462244338   -0.16799608421278    0.40623326783220
H           2.07811448766221    0.58853532783604    0.20735496758270
H           3.67614962460760    0.00546633440579   -0.08103911915356
H           2.93411612654599   -0.17786106602443    1.41797474692472
