    26
        -50.46507291  Gyration_radius:  2.55358196847 Dipole_moment: 4.277
 S           0.40869435954720   -0.66461716443522    0.62768877545433
O           1.68490568609014   -1.27491749750095   -0.00571939519429
O           0.60767988529020   -0.61044922792122    2.07116845623395
O           0.27080910372294    0.69689190786163    0.09240581885222
O          -0.73400211517819   -1.48515513105568    0.25166346432166
O           0.37626294235044   -1.02104112330559   -3.60527733026700
H           0.82942862485658   -1.12208407218218   -4.44359925658797
O           0.10372790828971    2.89103978147627    1.54983090230790
H           0.19105865561462    2.15193047337888    0.90352709294789
H           0.99735596722781    3.18527718741369    1.73245595828162
O          -2.59734163022221    0.29624285720713    0.65867597662442
H          -2.01381949645241   -0.47763124296609    0.46841347638704
H          -1.96597951417206    0.76401417568255    2.06272147643790
H          -2.37243601160830    0.94138111259295   -0.01719908209866
O           1.77639086069934    0.68977259020316   -2.08950429773451
H           2.50355558800951    0.16335418172643   -1.74612819478248
H           0.84273554097268   -0.30086736733209   -3.12204566107999
H           1.17389307758132    0.80569957687790   -1.32542158416788
O           0.55379898970470   -2.83961057498473   -1.64448946293655
H           1.35678482510973   -1.97182737797596   -0.67269182631591
H          -0.23855074138468   -2.68345910459973   -1.10623621180698
H           0.44045708636705   -2.28120457992274   -2.44738229751437
N          -1.25432540947908    0.99367939843207    2.81656615167643
H          -0.47062733904265    0.27118204560511    2.66682439367621
H          -1.64516527520226    0.96734169301396    3.75145787718523
H          -0.82529155866857    1.91505749272305    2.57229477017871
