    26
        -50.46139738  Gyration_radius:  2.50382602813 Dipole_moment: 6.335
 S           0.46764762150331   -1.85662047116357    0.99556192571242
O          -0.36546425067974   -1.76961276231053   -0.18214982126661
O          -0.11878837417685   -1.32712809107981    2.20493284367428
O           1.80463994612166   -1.29384770898224    0.76248045738989
O           0.69563203463438   -3.41124051177155    1.24423118212853
H           1.07226409227264   -3.46454613193919    2.11792153665176
H           1.34066976984050    0.21340013500265    1.07787219027990
O          -1.47590141763203    1.96985315416097   -1.96352468639321
H          -1.90811408611519    2.80789035597815   -2.13223345553622
O           1.02600592012234    1.14498760490699    1.18168338615413
H           0.97463717504014    1.28681526224754    2.12898848373703
O          -2.56185435216699   -0.97446064924866    1.16915134318789
H          -2.17068013205113   -1.39337093545009    0.38958423676394
H          -1.86629171200196   -1.09141579635598    1.83883712580561
O           1.53960225579361   -1.01701250315903   -1.82451596400022
H           0.65985189248951   -1.39784693215377   -1.64266479596487
H           1.98047980341620   -1.17256627989983   -0.96347130700638
O          -1.73228407839178    1.48210206310813    0.56819964941418
H          -0.82202184724218    1.34311304209728    0.86891950206265
H          -1.70202425769668    1.72941338402098   -1.01743422592220
H          -2.20375401668988    0.64447830212256    0.79059895997441
N           1.08637151088300    1.53400904263988   -1.53273281694382
H           1.14932679011987    1.62557660136115   -0.50657639896557
H           1.75415961679136    2.14058200214026   -1.99564695810420
H           1.28722490826423    0.49273140628244   -1.75604642565341
H           0.08866518755116    1.75471641740582   -1.82196598718413
