    26
        -50.45746846  Gyration_radius:  2.62928741072 Dipole_moment: 3.904
 S          -1.18841866641414    2.04334909457234    0.27457492558965
O          -2.02807975957931    1.61181737564681    1.35150541460658
O          -1.30852564382257    1.16263952017345   -0.89920259587577
O           0.21234247770874    2.21464667381859    0.65601605198866
O          -1.69145629992085    3.46983723678502   -0.20257559602299
H          -1.08820768041849    3.75794692203481   -0.88514065858655
H           0.39857585024577    0.88349123601302    1.55408180465677
O           0.33417418389230    0.03801513469253    2.06663462484730
H           0.10606467831433    0.30606934772168    2.95919540737000
O          -0.48063562255043   -3.19921941168626   -0.34852943425683
H          -0.49678109121226   -4.05261867295816    0.08641930677440
O           2.57623970448974   -0.53496341350417   -1.64191274930860
H           2.11195681204113    0.32902343601983   -1.72173904435868
H           2.55478547507053   -0.93138743197261   -2.51354375960977
O           1.13585090023585    1.72966474728143   -1.80671327730708
H           0.22098933391317    1.40003831507982   -1.82011477950894
H           1.22015986245759    2.07067967473305   -0.90229712121730
O           1.65695027504662   -1.94320609399195    0.46057289260216
H           1.40107643753101   -1.26358879747726    1.09675474073607
H           0.40155019800039   -2.79028928332979   -0.11986263135076
H           2.07593408036209   -1.46357650331697   -0.28510414924432
N          -1.64577319552790   -0.99472001828928    0.52866213262375
H          -0.95500311957392   -0.68484752699658    1.25461583624203
H          -1.34258695695522   -1.92679199662541    0.13135142063017
H          -2.57983542944048   -1.00520636570452    0.92622962317688
H          -1.60134678389959   -0.22680320873425   -0.19987838519604
