    26
        -50.46139744  Gyration_radius:  2.50392411388 Dipole_moment: 6.332
 S           2.00082455128420   -0.65285685474202    0.47742116402730
O           1.45187609303348   -1.49635110590914    1.51377141427290
O           1.58002436481273    0.72907878352437    0.52059866565891
O           1.79944843882253   -1.24449116315605   -0.85221542266688
O           3.57584920505949   -0.62724464471363    0.70010731369129
H           3.81176797575796   -1.53517253028068    0.86754300876284
H           0.26064760221085   -1.61654866709307   -0.56940992268396
O          -2.47411559546928    1.93959120258405   -0.18288792021752
H          -3.40978053393266    2.10817258807568   -0.06574891904782
O          -0.70676826172091   -1.75605675673573   -0.42016392062981
H          -0.76536564130490   -2.55737656856652    0.10389104432893
O           0.35534892855283    0.50425407355784    2.91471136628526
H           0.71939489762574   -0.37627696030963    2.71941895698325
H           0.78741276674374    1.05858338787808    2.24964754837976
O           1.21416490895949    0.99694388288285   -2.06567382329971
H           1.56470196872416    0.09051633441905   -1.94109009179370
H           1.35974325043626    1.36560963668217   -1.17415880512735
O          -1.83284200050584    0.04965465303253    1.46965778240829
H          -1.42559184552673   -0.62263796692820    0.90356444043531
H          -1.13578942133808    0.28314642458292    2.12775043550387
H          -2.21380645072624    1.31109463659067    0.55269314941638
N          -1.32429422490924    0.40617790529295   -1.99057406679604
H          -0.29394434375391    0.72704526307482   -2.08999329202933
H          -1.83254170505583    1.09377930298359   -1.36077426712817
H          -1.77011823036728    0.32827973810318   -2.89796516496241
H          -1.29624668736878   -0.50691458489626   -1.51012066376464
