    26
        -50.46507285  Gyration_radius:  2.55366494623 Dipole_moment: 4.278
 S          -0.42388989336786    0.87755981644520    0.23078119422040
O           0.95185446960940    1.30935101659471    0.43402001895672
O          -1.18695069057872    1.80929540294822   -0.59125653638405
O          -0.46570172458475   -0.46399320577156   -0.36729219799328
O          -1.12061551711247    0.78138883108033    1.61198928276324
O           1.38471929359415   -1.75767451123111    3.02942752037136
H           1.34906317162174   -2.29501315822564    3.82210249248385
O          -1.50169899457712   -1.04468470378970   -2.72444971243298
H          -1.11805748642584   -0.95769179273707   -1.82062052880502
H          -2.43723715051339   -1.20871157728919   -2.59639957743938
O          -0.91486290505519   -2.07549279043083    1.68920170716303
H          -0.72288439488795   -1.58701512405719    0.86164776812059
H           0.58571951513217   -1.98722147008014    2.50151472385875
H          -1.54274143788770   -1.51902179918926    2.15811448822011
O           1.92911516393509    0.45055593421866   -1.82839760300968
H           1.82293173101802   -0.49793898192399   -1.71552520610985
H           0.68952502054300    1.02010152452128   -2.68111419955030
H           1.70753088488256    0.83298653141456   -0.94513167106238
O           0.95236435922875    0.88717765731341    3.06288148054680
H           1.38886025609917    1.20764838371105    2.25748997721408
H          -0.37607493533313    0.85714661417820    2.30342970312546
H           1.21645991680537   -0.05756367818388    3.14715321381372
N          -0.29641703097325    1.31045436492144   -2.94791245010442
H          -0.82820997584685    0.44004677751326   -3.17628987583008
H          -0.31913177826282    2.00163132969487   -3.68898532935174
H          -0.72366987702090    1.66667859827442   -2.02637870277606
