    26
        -50.45450934  Gyration_radius:  2.45170963097 Dipole_moment: 5.292
 S          -0.65108975748157   -1.41415671374652    1.39163682346918
O          -1.14353301210336   -0.23940322536453    0.69541813435392
O          -0.90158117660935   -1.45202662886691    2.78685552795223
O           0.86652357667263   -1.53497610567598    1.17353345576366
O          -1.23903902583161   -2.65486125744689    0.68484567950102
H          -1.64877751554405   -2.36337110241807   -0.18587570214387
H           1.20011389243736   -1.20485389351611    0.25820244723038
O           1.76807691517103    1.92359958375832    0.08156523468841
H           2.59662127799919    2.38332494023714    0.22291837810359
O          -0.35675369902727   -0.19723015492615   -2.73984544473399
H          -0.36859820970288    0.05126534326795   -3.66482150268430
O           1.71627040823159   -0.56865042561727   -0.99851611787660
H           1.02949641702223   -0.56385995356561   -1.69014969887542
H           1.81961290972750    0.36022057087636   -0.70357870593910
O          -2.27706533208399   -1.60675146756707   -1.42667980378752
H          -2.60173021635928   -0.84572036095803   -0.93391549572833
H          -1.56458837612795   -1.25715410820434   -1.99886130062227
O          -0.75155940305919    1.76344560913369   -1.07091242323645
H          -0.55466599797369    0.62721440795619   -2.20957672511498
H          -1.02429712525558    1.15871186722679   -0.35873257437063
H           0.11838754405611    2.08610414213638   -0.79160458220844
N           0.77659099422383    1.11584336468590    2.42203324116284
H           0.64018861044145    1.68901336867310    3.24646010791105
H           1.42273474865137    1.66757673710553    0.98542063280865
H           1.26628633956624    0.27647229255427    2.71066313467214
H          -0.13762479702107    0.80022315023367    2.11351726971653
