    26
        -50.46507298  Gyration_radius:  2.55415406929 Dipole_moment: 4.282
 S           0.93810669145212    0.00348848360016   -0.34347964949091
O           1.01536264410172   -0.77969929118870   -1.67885535596874
O           0.65471155739595    1.40057533184823   -0.64052887368843
O          -0.15003228075493   -0.59292168356049    0.44344544625982
O           2.20680015012336   -0.17398534963703    0.35310892399519
O          -2.53710891456004    0.15940501366190   -2.78268866761820
H          -3.08244375763041   -0.18844304429040   -3.48977140533350
O           0.09885549416200   -1.56763124900414    2.88378064814026
H           0.37600422476048   -2.48153769903691    2.80283149608084
H          -0.10963419836713   -1.26808389094251    1.96811042459586
O          -0.28614416553172    2.07496831811448    1.69866432552755
H          -1.08360179417738    1.53924808655895    1.72714864471841
H           0.88900165436186    1.31189702508291    2.48997898732776
H           0.04847445203740    1.97477194593647    0.77482235876462
O          -1.59875793500119   -1.90251999534404   -1.34985440505567
H          -1.16247706677506   -1.43810487041197   -0.60543708508752
H          -2.30867179215862   -0.60530687035993   -2.20575675593344
H          -0.87331150180958   -2.24732183322640   -1.87771939412061
O          -0.01640651109570    0.97812568977772   -3.18191314281055
H           0.15508026402470    1.58131093520415   -2.44121276943298
H           0.65884705964993   -0.14594668011054   -2.39258909761730
H          -0.97864792658692    0.77434335243865   -3.13757751841430
N           1.63245025956700    0.59451253385854    2.73516923568857
H           2.03524070579887    0.29764011807749    1.78203697717951
H           1.14151291983176   -0.25346864427729    3.09934902305367
H           2.33678976721371    0.95468426724778    3.36893763927435
