    26
        -50.46161845  Gyration_radius:  2.73575387985 Dipole_moment: 3.834
 S          -1.20617636037947   -2.08739985322224   -0.76201838459514
O          -0.74313922890495   -1.98689518478493    0.60398536562493
O          -0.18330469823649   -1.69044196023987   -1.72717856801038
O          -2.45550289960922   -1.37641556764361   -0.99169386033171
O          -1.50255684974883   -3.62022115211671   -1.03386914741154
H          -1.79610284729423   -3.60891455882493   -1.93936392583027
H          -2.41377055634036    0.19894206457028   -0.79365103447109
O           0.82928153632747   -0.15218707152413    1.81255368649500
H           0.62806736605316   -1.06575728360982    1.54905690766830
O          -2.29049983428245    1.17524233469278   -0.63505747224306
H          -3.00824239775761    1.61008279837104   -1.09712071864926
O           2.69917531147351    1.97731559179272   -1.21543376417401
H           2.97314218423171    1.79619739052855   -0.29143456735812
H           3.37380918762488    1.59107797332705   -1.77585011662263
O           3.17180338515027    1.23594328494408    1.34358826930877
H           2.43193814769354    0.65882449337144    1.60065347968447
H           3.29233646110219    1.85640441736746    2.06392814371391
O          -1.79998337910759    0.16045177030551    1.96685860598458
H          -1.71743208594197   -0.72944492153790    1.58372507464337
H          -0.03583144788721    0.15857906016562    2.16224739709275
H          -2.13613591569295    0.71249532281102    1.24833438988519
N           0.38359103932822    0.65655234801550   -0.74836497449392
H          -0.52247591871490    1.14923740676881   -0.79457979608124
H           0.26273164336047   -0.26794293553769   -1.25294788955409
H           1.17149954653222    1.22139178450366   -1.12810069027342
H           0.59377862091959    0.42688243750351    0.25173360003762
