    26
        -50.45796962  Gyration_radius:  2.58065161685 Dipole_moment: 5.744
 S          -1.99525096707431   -1.17756023710594    0.81333335347519
O          -1.94237929596599   -1.21482794786429   -0.62555701476845
O          -1.49132396959394    0.09079610253101    1.34438819738578
O          -1.39370155081605   -2.31851840680886    1.47787059532576
O          -3.54162566261183   -1.22530814123550    1.21124112878602
H          -3.51713427883199   -1.55052959864162    2.10636332210142
H           0.01313965127048   -1.98554539415837    0.84751345305132
O           1.95770541283299    2.00741186809617   -0.04813109609011
H           2.49369111699079    2.76236553753755    0.19712819683576
O           0.90549441440940   -1.84981597120441    0.43486255042055
H           1.20946233861667   -2.73082623359756    0.20326421014497
O          -1.06107625615617    0.41554074222593   -2.52401570885380
H          -0.13395019314836    0.09760786965502   -2.54993477521326
H          -1.53502673069879   -0.27574195888510   -2.01845831523278
O           1.44019908481442   -0.25843494796460   -1.79305663567767
H           1.77518993917698    0.54694078877728   -1.38238570893179
H           1.18453372153860   -0.84582062780775   -1.06152930640455
O           2.39462437053715    0.04163261648721    1.66474233782864
H           1.75453066890416   -0.63131952012402    1.35526896066252
H           3.25466582396376   -0.38255511513400    1.64945842791050
H           2.11110288252501    1.31678220278444    0.64477993399545
N          -0.77658069352395    1.86617595142830   -0.38908356424192
H          -1.09143832280735    1.15538320346384    0.35260232682000
H           0.23445897704648    2.04567979000719   -0.25768470028795
H          -0.93336043740532    1.38037960261599   -1.34421313843194
H          -1.31595005399368    2.72010782492535   -0.30876702061091
