    26
        -50.45907590  Gyration_radius:  2.44225616428 Dipole_moment: 6.923
 S          -1.42234373790011   -1.47113713088156    0.32590641990271
O          -2.25934457432608   -0.34955489995894   -0.08425640990565
O          -0.66426222350569   -1.22722758093361    1.52191059796031
O          -0.60108613557871   -1.92192066151547   -0.80044771843366
O          -2.41991767365035   -2.65773542123618    0.64422369375527
H          -3.05290479547224   -2.60811993139811   -0.06505898165024
H          -0.04895296161568   -0.77125989795340   -1.76212737182686
O           1.42970676401639    2.06329279093227    0.87926745094983
H           2.02420670549048    2.81280984362833    0.83632263348775
O           0.31151260846283   -0.03228285687588   -2.32353758065242
H           0.28902360424856   -0.35341904033770   -3.22608309227927
O          -1.01900098728152    1.39392888556472    2.18094472065371
H          -0.09990121798122    1.63124144595925    2.33601710322440
H          -1.01720909016378    0.42927911432838    2.07750481642487
O           1.69935223923898   -2.14633107561046    0.58072637845216
H           1.20062293020265   -1.87264360577138    1.36181290519064
H           0.99702587097979   -2.31091643270386   -0.06974600513703
O           2.48980810591583    0.15068506312561   -0.53122068831361
H           1.90553315075962    0.09912364164060   -1.30085252405826
H           1.90076878648036    1.30943210335643    0.42261738975756
H           2.37256988162176   -0.71114237765543   -0.06787984926390
N          -0.80246108554925    1.73571066664499   -0.59610429734629
H          -1.33088407441907    2.57762251510073   -0.79849202494604
H          -0.36186105670024    1.32747819128417   -1.43965698601805
H          -0.06078399292606    1.92762129052344    0.12634236294597
H          -1.45921706035889    0.97546537076443   -0.22813291287433
