    26
        -50.46854437  Gyration_radius:  2.52439648659 Dipole_moment: 1.499
 S          -1.05937662335990   -0.72191101727379   -1.36950936105521
O           0.25644619921649   -0.11079611218885   -1.52147830434040
O          -1.75442652097042   -0.20003244040327   -0.20785000543802
O          -0.99225360721915   -2.16657186904015   -1.41779631714131
O          -1.91714160382395   -0.26777790475550   -2.62040491728576
H          -1.52177510168447   -0.76413746289316   -3.32903948651707
H          -0.03567677968843   -2.64155436533015   -0.20388129743528
O           0.57089926173566    3.38525596693134    0.89184853221550
H           0.94352803236829    3.98795160125700    0.24666116605737
O           0.54350840100960   -2.86925126592245    0.56557751590458
H           0.49217433619971   -3.82190470412513    0.66152914826018
O           2.63285800097592   -1.21071590505946   -0.29379812430752
H           2.11231562139883   -1.92592488499291    0.10282849784076
H           2.10696872927221   -0.92351758335765   -1.05061010725595
O          -0.51174971275032   -0.84559017957671    2.09271622215856
H          -1.19088052322886   -0.64534418534134    1.42341408446629
H          -0.12015160653528   -1.68664315086142    1.80041669578710
O          -1.69362884486678    2.44328015527691   -0.18740225201411
H          -2.54880409642278    2.69175764432377    0.16774579685223
H          -0.31056412295816    3.12443711241344    0.54063583468598
H          -1.70733801035837    1.46321578817467   -0.24614821093932
N           1.16063590303340    0.76446357100652    0.81262716446194
H           1.13980173873413    1.79128573463429    0.98552399953333
H           0.74195692834047    0.56570424449755   -0.13178495177833
H           2.09875731713990    0.34537346018609    0.77917048863467
H           0.56391670441021    0.23894773243057    1.50900818870046
