    26
        -50.46854343  Gyration_radius:  2.52375938004 Dipole_moment: 1.534
 S          -1.81847833243594   -0.43339571824064    0.12765608268227
O          -1.02730937721545   -1.19726076912952   -0.81860412535983
O          -1.21365606292427    0.86545558354039    0.40181904502762
O          -2.13563349024188   -1.14854811482791    1.34486309963733
O          -3.19493890161519   -0.14698579135562   -0.60053283047766
H          -3.72701113535445    0.21124960580877    0.10181602300138
H          -0.74857259500818   -1.36038759588196    2.14888063972955
O           1.74430242123399    1.78118899634273   -2.52301183106019
H           1.49117998123508    2.68221826079887   -2.72905761917555
O           0.13349370701349   -1.47344662687198    2.58294425194633
H          -0.00853342493323   -2.07425188707211    3.31661108067854
O           1.39246250148389   -1.84454436076563    0.17101727744803
H           1.14270947913583   -1.89063086402019    1.11001607178986
H           0.54516367601227   -1.86533411570260   -0.30950988274897
O           0.70961667078104    1.26930404706025    2.52267410928537
H          -0.12486466473316    1.44394433459650    2.06992498379326
H           0.66016988557221    0.33169273761817    2.76386763330179
O          -0.44034174788966    0.28320597433989   -2.92856558809327
H          -0.69635194357855   -0.23597148754366   -2.13552477032515
H           0.97619494098570    1.22022750039199   -2.77502869026543
H          -0.49313153594808   -0.32852545563288   -3.66478930530993
N           1.39935898804404    0.79739252884132   -0.04566670982159
H           1.71618424094081    1.22309221247536    0.83473597618917
H           1.61345231871658   -0.23765368588600   -0.03394023447638
H           0.35043665271417    0.87376348011549   -0.02085596602649
H           1.75409773801300    1.25420123104523   -0.91173870138145
