    26
        -50.45509208  Gyration_radius:  2.70155064119 Dipole_moment: 5.399
 S          -2.47003736111794   -0.83979880835795   -1.14847754292006
O          -2.32833801797007   -1.69779486060967    0.03290117754802
O          -1.19601662773322   -0.60334789720772   -1.78908747496658
O          -3.19728677080915    0.37966042762112   -0.84249201924492
O          -3.36412010174972   -1.65239856232807   -2.18131533361444
H          -4.22555876753935   -1.66805234224783   -1.77266856827141
H          -2.01463745060331    1.39909638635690   -0.36212509038429
O          -1.12890802592547    1.79168462618194   -0.16040209780840
H          -0.70833941025206    1.87502485369774   -1.02285898305524
O           2.32454316097481    0.19865389495988    2.28483551913670
H           3.09717256177797    0.48753775531155    2.77119534102635
O           1.23243689077137    0.52976190505400   -1.58728637486092
H           0.36443131500254    0.13036798062972   -1.79021151708004
H           1.81526256670507   -0.21506449701391   -1.40721911106067
O           2.23524919130436   -1.47705381989731    0.20037039165092
H           2.48848099972201   -0.93751270103840    0.98137075010070
H           2.44782614530382   -2.38933104684344    0.39935427239837
O           1.59725173934013    2.09577546025327    0.59866243340697
H           0.72171702154304    2.48460006168007    0.68823114129805
H           2.06077651938667    0.96860531191023    1.71811328844470
H           1.57927405324885    1.62013551089612   -0.25954679726409
N          -0.25364787800062   -0.49880225795475    0.95217630428310
H          -0.47399787412945    0.45842746470788    0.56572260615148
H          -0.09134350023334   -0.45460899232635    1.95515526419640
H          -1.10336174546496   -1.10188056166798    0.68754678967622
H           0.59117138644009   -0.88368529177639    0.48805561119061
