    26
        -50.46290497  Gyration_radius:  2.46788853042 Dipole_moment: 5.399
 S          -2.11392105198649   -0.88246875895343   -0.23282168704773
O          -1.62496432696571    0.09882287393240   -1.21576887295108
O          -2.74645665730883   -0.24533917369613    0.88330093493666
O          -1.03603754470225   -1.78903542834359    0.15477720365714
O          -3.18710913100795   -1.76163514560083   -0.98890430743263
H          -2.70260548988481   -2.20493810576875   -1.68086385232303
H          -0.51690011517588   -1.00741901486741    1.48778033856904
O           1.86091883476590    1.93624233500119   -0.32329812570782
H           2.60569126776395    2.53640232259946   -0.28316980408755
O          -0.30998956124897   -0.36038368550111    2.20840861802039
H          -1.05813077171705   -0.42865357343304    2.80709123971412
O           1.55957544101803   -1.90469250641961   -0.73377959196613
H           1.45207945419108   -1.29168120648075   -1.48872992147209
H           0.65690834561206   -2.06542186101873   -0.41587749387462
O           0.86141655934758    0.14898388494678   -2.36448714430669
H          -0.07346239605468    0.12748358357611   -2.10028353815994
H           1.26340854816831    0.87606184922867   -1.87136811620801
O           2.33412771790966   -0.16975323850006    1.08571233872892
H           2.19105547009838   -0.90185892455999    0.42760408317639
H           2.12635630930030    1.11946432495241    0.20876047879030
H           1.63568428098816   -0.28485463747899    1.73966434857855
N          -0.63692009861459    1.72531669649061    0.54853974758596
H           0.31409027187219    2.02445246093029    0.22031796335779
H          -1.11299611003553    1.18622372353978   -0.23928236081631
H          -0.52529817622740    1.01556800885373    1.32173003037415
H          -1.21652106994931    2.50311318669774    0.84494748084404
