    26
        -50.45416783  Gyration_radius:  2.41835931104 Dipole_moment: 4.211
 S          -0.70673756762677    1.51610368269385   -0.27576825164181
O           0.70333803576390    1.41480213271302    0.03239424421471
O          -1.52914483547252    1.80687617671282    0.85280809035359
O          -1.16739117958295    0.19301957383568   -0.94589960895855
O          -0.93058651430058    2.51141336439573   -1.39963001222846
H          -0.59278426721452    2.04938037408112   -2.26214105376426
H          -1.29599195626963   -0.57224047129449   -0.28978474047072
O          -1.53438313222034   -1.70597657816451    0.71355577950691
H          -2.47554084119669   -1.87895588083356    0.77456651269082
O           1.72914614249485   -0.00939313031373   -2.00373540069924
H           1.58011309488842    0.60314062596499   -1.26472240805209
O          -0.14541045450637    1.16392115358620   -3.37622585974998
H           0.64801327952316    0.68971394336314   -2.99242383604594
H          -0.83104789879460    0.49607966125287   -3.45964699648562
O           1.94815668631945   -0.28898588385053    1.66696053764573
H           1.52279731058932    0.40193899604646    1.12009576559802
H           2.89011495267925   -0.11115266461689    1.63737111521397
O           1.11967898360980   -2.07331139170253   -0.31685866035408
H           1.48138928245870   -1.61460520519444    0.46031153366977
H           0.19771927696689   -2.24925193606732   -0.10360435835227
H           1.54637393478432   -0.89103950069479   -1.62350168861537
N          -0.82287818314703   -0.25909512793381    2.72536435249150
H          -1.18221536360934   -0.29671828063165    3.67013782514959
H           0.19024899438459   -0.30299034007082    2.76552733440790
H          -1.26336122413800   -1.22925478832298    1.58186550582199
H          -1.07961655638198    0.63658148504237    2.31298427864865
