    26
        -50.46161841  Gyration_radius:  2.7358400019 Dipole_moment: 3.831
 S          -2.50386716979135   -0.20009437179963   -0.29127421874901
O          -1.80507979307500   -0.49590360317748   -1.54010677186320
O          -1.95232304496341    0.95015227177244    0.38927413810021
O          -2.58769546392880   -1.37750268604053    0.56061279613089
O          -3.99084445046353    0.17371570380914   -0.69191447345077
H          -4.28438722044745   -0.61919601394320   -1.12939445753705
H          -1.20838564813762   -1.96196091734847    1.08834972403389
O           0.60203960046209    1.77869644980083    0.68561690300578
H          -0.31373383387819    1.91807685115545    0.39162695064273
O          -0.29744012315325   -2.24621570524191    1.37629625530575
H          -0.37862838690123   -3.16346963331664    1.64044673844541
O           2.89875355257773    2.07777217114637   -0.82113957560102
H           2.07506795853448    2.12435655928292   -0.30543373644056
H           3.60261113659198    2.34768785543937   -0.22941623319936
O           2.84879450142320   -0.29861319200450   -2.11418424730676
H           2.99302999507574    0.57488780246291   -1.69253002793631
H           2.77732921474614   -0.13353524989461   -3.05548085597503
O          -0.46287548980925    0.30019350457921    2.61291737454778
H          -1.23268551879190    0.50077969459127    2.05370917921807
H          -0.29207688718513   -0.64112635763317    2.47586330028044
H           0.47635567342185    1.40072025523074    1.58487984577734
N           0.62410873521286   -0.61749747776126   -0.60623369254330
H           0.56421180130632   -1.37743413352134    0.08999040318856
H           0.70662120828778    0.29738378454444   -0.10289876630040
H           1.44103619683645   -0.71609090503876   -1.24413733525498
H          -0.29993653395536   -0.59578266707687   -1.12543922652803
