    26
        -50.44637523  Gyration_radius:  2.50004288307 Dipole_moment: 6.920
 S          -1.18793134367666    0.75438242885950    1.97628027896798
O          -1.45671124694565    1.01042531458936    0.57349340118347
O          -1.46651135456989    1.81516918387820    2.87033633414127
O           0.32038292507509    0.33987578174121    2.07177483848493
O          -1.88367275918806   -0.54304999103908    2.40300798079376
H          -2.14604977510894   -1.06350496277470    1.57093322286066
H           0.78715427429809    1.14862620089022    1.68427044236106
O           2.42328535258566    0.85415614128987   -1.03150245593543
H           3.37028828214709    1.00149577091828   -1.02823645555142
O          -0.20892856696018   -2.20389193578604   -1.19048594872454
H          -0.15082885779335   -2.84096443064846   -1.90339726375084
O          -2.46026637308321   -1.48867515431669    0.12000789369754
H          -2.41495719553952   -0.56562852355635   -0.16566117895890
H          -1.68098527755484   -1.92663321951223   -0.28157138393240
O           1.10237780824108    2.35131866401573    0.74142884346994
H           0.21027591822658    2.51123933776935    0.41853691361862
H           1.60471063412989    1.91084596861611    0.01298266272474
O           1.86238818242564   -1.30784593663321    0.37682650889305
H           1.41759759102964   -0.94067968514236    1.15252437967681
H           2.27528920306966    0.00425986893299   -0.53572159213936
H           1.17696365240494   -1.78734236596303   -0.12162033107312
N          -0.32001007571907    0.28960769248461   -2.01777587091603
H           0.63171033688336    0.63990156071081   -2.05419137165887
H          -0.81080245773993    0.62286781368793   -2.83720059706999
H          -0.23348030454277   -1.28548128749642   -1.60843965993017
H          -0.76128855197851    0.69952575456959   -1.19659959120692
