    26
        -50.45364415  Gyration_radius:  2.46389540493 Dipole_moment: 7.670
 S          -1.90310781260106    0.74004212805542    0.95846342617066
O          -0.78518723561605    0.78784925158659    0.02597832559460
O          -1.52794706323318    1.05573796636780    2.31600008279081
O          -2.67214070113649   -0.48113272724992    0.82118757868680
O          -2.86778949704142    1.92664481142313    0.48001286296661
H          -3.43555867488116    2.00581460259273    1.23863202355214
H          -1.92900336744495   -1.56760379268984   -0.11056591922893
O           2.26787764165816    1.76352868723407    0.38621508393574
H           3.12033558953042    1.87701881053045    0.81006097969385
O           0.93786419565037   -1.98951144888047    0.46743941759774
H           1.14656736423195   -2.86664812117044    0.79063821441693
O          -1.35111558361151   -2.10278117273296   -0.71222729692316
H           0.01694360664539   -2.05147293844772    0.06147353322071
H          -1.28108176077939   -1.58175120721294   -1.51999470243225
O          -0.62543423426790    0.17375836496651   -2.41001999893110
H          -0.82073910950242    0.43827860390156   -1.45749756102867
H          -0.91343878526726    0.91433201422023   -2.94517238074391
O           1.01116568169335    0.33913533382577    2.16233918422175
H           0.09546908659769    0.66172169075299    2.30245656175470
H           0.91393187869846   -0.50256494188000    1.69496342765096
H           1.67915486775384    1.34589033240089    1.08348128543328
N           1.80734360602871   -0.18260527491981   -1.31284601138166
H           2.58776296232095   -0.42149476036717   -1.91427898244276
H           0.93257923676883   -0.00126513560120   -1.86431881817844
H           1.58258814697901   -0.95620508016599   -0.64408495269283
H           2.01295997083440    0.67528399344193   -0.70833535370422
