    26
        -50.45788915  Gyration_radius:  2.41126995075 Dipole_moment: 7.661
 S          -1.55970631565236    1.14116747194985   -1.18411407178797
O          -1.22661010259444   -0.31367551905982   -1.25635414270786
O          -1.83435241311886    1.69374282170317   -2.46710340993698
O          -0.24546427089364    1.81087304745926   -0.60273682572095
O          -2.53117750569301    1.36030016867038   -0.12806327506914
H          -1.64850843988911    1.34636340243423    1.15451686326044
H           0.52280912311435    1.57936089022918   -1.17090480295078
O          -1.11537268939388    1.15615937861135    1.98328155757149
H          -1.36411314593178    1.82924664911043    2.61786521321274
O           1.33173255783471   -1.98752576238855    0.98782438705872
H           2.02192346488333   -2.44210788820743    1.47144744247142
O           1.10911883919945   -1.47457650835079   -1.79346713350362
H           0.18641559229577   -1.14869116337288   -1.77152823934400
H           1.26832059384185   -1.85108344739319   -0.91571560838468
O           1.97452245200428    0.99359363585567   -1.74347527308888
H           1.76662650300828    0.02205252460914   -1.82511923249378
H           2.12349348845338    1.31236898573281   -2.63472370250317
O           1.58176175256188    0.59890006485896    1.24469359026659
H           1.50377107927861   -1.00963029043926    1.10250823600050
H           1.85350231947726    0.97062123451867    0.39750934927353
H           0.69948807908057    0.96649216045116    1.42718734335874
N          -1.29765682576610   -1.34076478220324    1.05037128407595
H          -1.33978473783901   -0.91778246487440    0.02094939438926
H          -2.08179922544117   -1.95906970330051    1.22106839992719
H          -0.38490659566768   -1.82324049170026    1.13790577805170
H          -1.31403359716152   -0.51309442489717    1.67617688856136
