    26
        -50.45364412  Gyration_radius:  2.46382708719 Dipole_moment: 7.668
 S          -1.86772648794460   -0.76494731559750    1.00696407421414
O          -2.29035147386377    0.31892341112984    1.86136717800138
O          -0.44315413445433   -0.73812605206593    0.70454383418457
O          -2.67266576557785   -0.93127619776617   -0.18714378742759
O          -2.06459034885561   -2.10465879677411    1.86357885122350
H          -2.92998652708439   -1.95300639021876    2.22726561555666
H          -1.80582067865394   -0.75550933496190   -1.53577816435399
O           1.95580355888388    1.09534330098374    1.83768293536958
H           2.40076664291305    1.88844943220275    2.14132213905922
O          -0.00477704602025    1.58630338335036   -1.59361570469534
H          -0.23474206387700    2.24003605970901   -2.25479659633808
O          -1.13065130072924   -0.63703561369489   -2.25162527256597
H          -0.48496277501604   -1.33724714894052   -2.10436644062304
H          -0.50153030191052    0.74561821374764   -1.84515283941431
O           0.95242290727369   -2.14595475263320   -0.84686754785879
H           0.30885047380714   -1.68674699538012   -0.22205854215066
H           1.21114607849101   -2.95276334844326   -0.39977114899541
O          -0.38845897658083    2.04004864414051    1.22541932737239
H          -0.38910672688378    1.93416141000612    0.26358071106774
H          -1.10867501289083    1.45741930411506    1.54795024534029
H           0.99418126637494    1.35872830117523    1.72335443832025
N           2.12923557781145    0.26748057477397   -0.64639494431222
H           2.13868156916353    0.53234268085327    0.38971346882992
H           1.80968151679821   -0.72869491100968   -0.73400999095506
H           1.38500398773883    0.85856885514049   -1.08562144655096
H           3.03142603108475    0.41254329616462   -1.08554039232419
