    26
        -50.45790638  Gyration_radius:  2.48933239617 Dipole_moment: 3.303
 S          -1.05679411558419    1.83539881714524    0.17755984818253
O          -1.47367788675231    0.71645307394836   -0.66444359120871
O           0.30354111372138    2.23979547527816   -0.10697752811917
O          -1.32558205371550    1.58152009935263    1.57879050879294
O          -1.97420996296431    3.06397094622311   -0.22272585018535
H          -2.75598370774723    2.89586115599327    0.29182241626424
H          -0.38437214569040    0.47375599445272    2.30209686054035
O           0.38646072035177    0.89882684759784   -2.44775250855519
H           0.71725585497535    1.74039124783179   -2.10831814822709
O           0.24703030770316   -0.19888134781668    2.66070886804817
H           0.47168893241155    0.09515818053456    3.54520847722961
O           0.52228690043940   -2.81769106558340   -1.17299890572208
H          -0.00123116747688   -2.94137216576277   -1.96680368525851
H          -0.12484678522956   -2.49648608810174   -0.44568622466242
O           1.98040249419272   -0.78627898278137   -1.43577355064295
H           1.43817555303969   -1.67285389493850   -1.32613975979408
H           1.36815484926564   -0.12291870619856   -1.95045216036743
O           2.02378653887507    0.44075134678399    0.74713784788103
H           1.50877203575949    0.03926499379548    1.47752486134246
H           2.08308942044253   -0.34846738193684   -0.48520096942226
H           1.49620907438360    1.22486460530706    0.47368908685797
N          -1.09863814056142   -1.80767613324550    0.57381327874912
H          -0.62238861630714   -1.59343377116438    1.44402546438237
H          -1.35389817803829   -0.91327859122898    0.15044881226857
H          -0.42056042552167    0.74825446198145   -1.89466563732005
H          -1.95467061997894   -2.29492912751920    0.80511219888676
