    26
        -50.46827150  Gyration_radius:  2.47319710196 Dipole_moment: 4.486
 S           0.12680541473828   -1.68675716446554    0.32229808935951
O          -0.99853624732541   -1.13277520037076   -0.46291779217675
O          -0.33958042422994   -2.42257001835682    1.46968233036409
O           1.02561749155038   -0.58811704824136    0.69055874496780
O           0.89922429291194   -2.66356602271435   -0.59446857077269
H           1.31738117950391   -2.14339852020173   -1.33739097053698
H           0.61573759155613   -0.13715832876773    2.71991025243275
O          -0.75221394419856    2.92127170309768    0.63842514060598
H          -0.30679563351010    3.39513708944883    1.34287803549233
O          -0.21835321101745   -0.42156936908030    3.11464298308379
H          -0.31752364312622   -1.33106978469962    2.74705254922316
O           1.82327344109369   -1.33824778506401   -2.62898751643771
H           1.06044084709884   -0.70799783448189   -2.75725072630471
H           1.80403595121858   -1.94065876364913   -3.37491560617889
O          -0.26629975417800    0.23264441950926   -2.62294432671557
H          -0.70092110283009   -0.30765555263197   -1.93110127744739
H           0.12329271860647    0.97559852628510   -2.13522782088252
O           1.15451397677025    1.58384453666952   -0.68224011325440
H           1.11431835727945    0.73026382827417   -0.16428476799239
H          -0.04763248220936    2.54870224275823    0.06703378002206
H           2.07866219012240    1.70473845803178   -0.90550998044269
N          -1.86594686889266    0.55980169074882    1.30150538347495
H          -1.61128267737825   -0.12079976217955    0.51579062303784
H          -2.86267562661577    0.53075723447210    1.48853325087049
H          -1.30015045940638    0.23444642946674    2.14486260193332
H          -1.55539137746055    1.52513498625742    1.03406571415646
