    26
        -50.44038429  Gyration_radius:  2.74189577373 Dipole_moment: 0.963
 S           2.58519264364624    1.11928744464776    0.41898814696502
O           2.18916889347579    2.47981782053372    0.39286356529386
O           2.16880675698118    0.30090489826378   -0.68922911300689
O           2.20754579587186    0.43017227258590    1.73558031947824
O           4.15284507044765    1.04239420939727    0.49275025212844
H           4.37781052981130    0.12247366172980    0.37038143785443
H           1.18155734373747    0.50018783568784    1.89665623003504
O          -1.69899358553667   -0.25540199776360   -2.10974907239095
H          -1.93452686649770    0.08222392060990   -2.97423186152342
O          -0.26378254210794    0.55870918094002    2.08465742912866
H          -0.44559990975336    0.59646634502404    3.02613314889323
O          -3.22217296210680   -1.45414008181780   -0.19442655245601
H          -3.48853026502086   -2.30163131230250   -0.55446529297562
H          -2.75589777135639   -0.98452792310730   -0.91366941959567
O           0.38892822176478   -1.79034975107458   -1.00562666341659
H          -0.30270088251530   -1.38323251287504   -1.55042068827662
H           1.09231376242375   -1.12699011984049   -0.94335940705680
O          -0.97089168618896   -1.73622926325351    1.28741133876055
H          -0.57502995537942   -0.37725639112680    1.77443286694424
H          -1.87019960519857   -1.64761377493333    0.90828338935813
H          -0.38903140796753   -1.89050300836481    0.50557752513550
N          -0.46480352292091    1.64852916323711   -0.75286105657397
H          -0.52106342559167    2.63843176949907   -0.95829437925487
H           0.50598850037488    1.37918323534037   -0.87819049283729
H          -0.66286094975943    1.54051633769200    0.23660176610983
H          -1.28407219063857    0.50857803127171   -1.60579343671948
