    26
        -50.46827115  Gyration_radius:  2.4729601839 Dipole_moment: 4.476
 S          -1.07885228527300    0.42707397904638   -1.27012529730806
O          -2.26120646567982    1.24803480828625   -1.21110120571803
O          -1.24862027967880   -0.82698076486737   -0.50313731446598
O           0.11096820114941    1.12363836013702   -0.77016729512107
O          -0.83403904112944    0.04115667382221   -2.74738212818589
H           0.04280958299445   -0.43220047411448   -2.81463624223303
H          -0.58993214761979    2.67923103595537    0.47262159974200
O          -1.48686383390814    2.64900505707953    0.82945432134804
H          -2.00277609047434    2.32764338239321    0.05337887062539
O           1.08096936787589    0.05624848008553    2.88799148410827
H           1.44513962579619    0.86528517370646    3.25159958303054
O           1.34968524933524   -1.35876316443122   -2.89070324586792
H           1.25226242120641   -1.87172370969200   -2.04040548142047
H           1.22013339439308   -1.98859803152591   -3.60224001322329
O           0.86173327091644   -2.44219546592098   -0.56219245081754
H           1.43073958153851   -1.86973370694474   -0.02370662417325
H          -0.01888256920623   -2.01545166711396   -0.51819516513377
O           2.03163632769508   -0.13282911141549    0.39261644011977
H           1.53703154830349   -0.09258902473282    2.03241931902494
H           1.29165940716702    0.34659803052625   -0.07751684861528
H           2.83162386373063    0.10663789299061   -0.07768058954662
N          -1.40483772900832    0.22252927774758    1.86438576118552
H          -1.50274873218893    1.24881727103583    1.59172754653237
H          -0.49111984494917    0.08784104388674    2.36141107061836
H          -2.18481675540425   -0.08727851345785    2.43442022565033
H          -1.38169604761262   -0.31139683250549    0.93716369986373
