    26
        -50.46587164  Gyration_radius:  2.49447613368 Dipole_moment: 3.138
 S          -1.49166579077051   -0.41054485503920    1.24360670462410
O          -2.71146780755974   -0.49942954208767    0.50044363957804
O          -0.88342255214799    0.93076974084648    1.14065327075093
O          -0.51602806635152   -1.42287505869222    0.79766626601490
O          -1.74797342841460   -0.67930627151549    2.75521593672122
H          -0.88868442232669   -0.45536738010824    3.17668455360401
H          -0.82892899334352   -1.46235149580162   -0.77973610410802
O           1.82616130886679   -0.48886372206071   -1.66545600766707
H           1.01662815341593   -0.97222429739155   -1.86301401400755
O          -1.02533200111446   -1.32845308684143   -1.74189764012164
H          -1.89544986851764   -1.71518615758875   -1.86282252437771
O           1.32381002110989    2.06155214976450   -2.12083978722155
H           1.63517072840224    1.12236764159480   -2.05829890176063
H           1.82661981429791    2.55044551175721   -1.46699166792569
O           0.69305272467315    0.27660701362550    3.17965641764537
H           0.29005960694680    0.86179158320867    2.51701172336488
H           1.40200984899765   -0.17750539536421    2.70120818045705
O           2.02578922210613   -1.04965864263912    1.03409104958385
H           2.42898291887751   -1.91003205730367    1.16399477773578
H           2.00205607205359   -0.62465066605479   -0.71465063866617
H           1.04860530613006   -1.21130199983611    0.97231743122206
N          -1.12183305969821    1.34281263135545   -1.40297826347240
H          -0.21806060291100    1.76311530684684   -1.75973878867101
H          -1.17255849966751    0.33829935164252   -1.70443466272073
H          -1.07656701322303    1.30184506885906   -0.33626563180286
H          -1.94097359915653    1.85814464931658   -1.70542530859718
