    26
        -50.46764447  Gyration_radius:  2.52666919082 Dipole_moment: 3.911
 S           0.08167140094194    2.05815566722045    1.06544434704310
O           0.21343534428920    2.31530334534481   -0.34533818060639
O           0.85702114148290    0.88718489431077    1.47949866608011
O          -1.29234734572458    1.97073919069142    1.53335885025234
O           0.70636839366825    3.29433755812021    1.83353122601595
H           0.27854775366819    3.20060230717745    2.67751969151875
H          -2.11488775992547    0.82506307186901    0.81511619531717
O          -2.56314960596720    0.07050945822993    0.34317934483243
H          -3.50349435373147    0.20351330643380    0.47276333016370
O           0.28787801364969   -3.07288517524411   -0.41643038099857
H          -0.45826906142402   -3.65877879533592   -0.54892664128904
O          -1.07675172742401    0.63078178956926   -1.87591308055778
H          -0.62561764009562    1.38504993108787   -1.43098093286029
H          -1.73083525389009    0.32551481461822   -1.22117374747654
O           2.68276325946642    0.09075155773734   -0.18277212706130
H           2.02505901224387    0.52005391304043    0.42028127845373
H           3.13519125272395   -0.55973662252964    0.35893160362409
O          -0.50750211207371   -1.41974190105831    1.44922341416737
H           0.04929938472178   -0.62434324583797    1.56506477814091
H          -1.35681439686745   -1.07640303068005    1.13134887473883
H           0.05121370288136   -2.50589001723688    0.36844055312450
N           0.97886268692783   -0.98240212924697   -1.92038028355905
H           1.70362211385374   -0.51579693563744   -1.30679720187158
H           0.71003700253572   -1.88373277054456   -1.45434606287067
H           0.11867890577887   -0.33774064448240   -1.96033583083041
H           1.35001988815266   -1.14010953765642   -2.85030768353969
