    26
        -50.46712758  Gyration_radius:  2.5434408191 Dipole_moment: 1.905
 S          -1.21088713726319   -0.62950512768502   -0.56366474749674
O          -1.72154486813260   -0.68755450677602    0.79918677489385
O          -0.00790276808667   -1.42055140278167   -0.74370966017861
O          -0.98782414182839    0.75474647983929   -0.98544474879842
O          -2.29334353845596   -1.23502484578583   -1.51207650400834
H          -3.12789747337584   -0.83784800005950   -1.18805309473945
H          -0.06019452957948    1.66852899525878   -0.02461099855864
O           2.67394689165483   -1.26250047691081    1.96888749953592
H           2.47066706556165   -2.19903280785820    1.93871573506667
O           0.66906178552530    2.10801598393553    0.48315943798692
H           0.73644894504906    2.99627465569420    0.12841887086760
O          -4.16178037277959   -0.17410398224319    0.02096239532139
H          -4.78618562635048   -0.77564760310106    0.43303851089199
H          -3.33923227322515   -0.22328716620886    0.55146246322052
O           1.11974322930604    0.87480206996397   -2.67541102312112
H           0.83392816919445    0.63852812742988   -3.55810793496452
H           0.31275327973149    0.85416938769385   -2.12596789758294
O           0.36052418776115   -0.00676520651982    2.36529922472258
H           0.45877276567918    0.90308563814727    2.06178955993895
H          -0.41868007927193   -0.35354651707913    1.89025970508586
H           1.84636984840945   -0.82246087372755    2.28113072121816
N           2.16392301730553   -0.02901122667957   -0.31533017970819
H           2.73560142808426    0.09628223659253   -1.14590157939461
H           1.31936485265334   -0.62431328589716   -0.57045587650017
H           2.63288771079690   -0.50406307677814    0.49585228654670
H           1.78147961164315    0.89078253150026   -0.00942896024542
