    26
        -50.45332261  Gyration_radius:  2.39099658364 Dipole_moment: 10.235
 S           1.94963690894282   -0.85926103035035    0.42416728154921
O           3.16526020182275   -0.59236806361422    1.11612059320474
O           1.02101344168461    0.29179716874673    0.43744268169161
O           1.15222158741585   -2.01725445602063    1.18884684088874
O           2.07292789214769   -1.35669997547118   -0.93648700369191
H           1.07689912407166   -0.60899770520828   -1.80511315895902
H           0.75349573348156   -1.57421811260915    1.96331128207566
O           0.39985361782187   -0.16474347060963   -2.41258886768764
H           0.91605545519392    0.17732675615921   -3.14424562197207
O          -2.29879430670511   -0.34835181402755    0.58983897487412
H          -3.20845854467541   -0.64644117150312    0.54927719066521
O          -0.23983967906537   -0.26352817343995    2.64053615883161
H           0.24351945605850    0.16015128317968    1.90124149587716
H          -1.14063280829403   -0.36378664409413    2.31063857726804
O           0.78117431870572    2.85590995862467    0.36299543057563
H           1.14816525845895    1.94143579660402    0.41565234186732
H           0.73505087545007    3.16879813153707    1.26834041798238
O          -0.83985217760306   -2.12195394247001   -0.64627643507434
H          -0.50239624073404   -1.77042983265634   -1.47773869815994
H          -0.05611247101356   -2.25703897955845   -0.08390882886040
H          -1.75237118369715   -1.07197882246620    0.16825473192750
N          -1.09849140474113    1.50320872305982   -0.97427321714629
H          -1.73259909232328    2.01652870613400   -1.57731601577302
H          -1.61757152249049    0.88742514369416   -0.30533648732970
H          -0.46199148166212    0.86587094637343   -1.54009392988609
H          -0.46616293817677    2.14859957998363   -0.43328573471740
