    26
        -50.46144070  Gyration_radius:  2.51486212967 Dipole_moment: 4.616
 S          -1.44620028489897   -0.52745502305513   -1.32182631723393
O          -1.48592514797373   -1.77980885623220   -2.04014329034589
O          -2.69196342473734    0.19598852034272   -1.27316172791231
O          -0.45363224650277    0.41932480115020   -2.20004468985530
O          -0.76565586387043   -0.63303234706053   -0.04624836796856
H           0.10242409303301   -3.48858666801685   -0.25460076943723
H          -0.94419204468581    0.48123963653261   -3.01254219456344
O           1.61492611767143    1.34272386522215   -0.61375664972942
H           0.99889519813055    1.15391697728353   -1.33586116964691
O           0.54864526623971   -2.90071682015172   -0.86780028133667
H          -0.18467160701610   -2.47481623419877   -1.37870591733995
O           1.29638997532280   -0.10393008814358    2.86646963266379
H           1.91609103561506    0.46240768828844    3.32951206892158
H           0.61786606144973    0.49089342446927    2.49095394475072
O          -2.47448381496972    2.43321142426659    0.13052622827669
H          -2.56121146939705    1.62255721316110   -0.41998487379051
H          -3.34802994470776    2.59047592450888    0.49193437010987
O          -0.23780800410738    1.50360897676085    1.31646549914515
H          -0.49890025498612    0.66641427223548    0.85898667984803
H           1.03689824708760    1.64515435291306    0.12272327843162
H          -0.98025776653580    2.09644594475122    1.10186131233569
N           2.00667062566615   -1.05538162481504    0.41549818716609
H           2.95368302912598   -1.41658444957192    0.36821559948150
H           1.33710359531270   -1.73048985686757   -0.05291713148324
H           1.71697297131368   -0.88278252066206    1.40328937674138
H           1.92636566835583   -0.11077855322175   -0.07884280711810
