    26
        -50.45996685  Gyration_radius:  2.52931214945 Dipole_moment: 4.305
 S          -1.06783041363275    0.37601765076308    2.01650840072278
O          -0.08240523477860    0.92760802163584    1.11148836962270
O          -0.66028398003597   -0.94578059875243    2.49160894109807
O          -2.41903881747059    0.39598292296006    1.50057285661323
O          -1.07279443217964    1.32523927043188    3.29629355409046
H          -1.82562409142512    1.00847769148810    3.78596135424254
H          -2.42435148072720    0.23567194147729   -0.15672685010500
O           2.95135892826263   -0.04930442981672   -0.16187683335852
H           3.78075383822238   -0.33490473989550   -0.54696241698474
O          -0.46018066137291   -1.59933196608164   -1.57454905180606
H          -0.91745688104157   -2.33016993103073   -1.99209292219787
O          -2.24742546478535    0.19515949064267   -1.12319629205515
H          -1.81432336392002    1.03565404322678   -1.33186752861841
H          -1.17199423955252   -0.90452121529659   -1.39199572938519
O          -0.40189965428770    2.29024411600444   -1.07283023620800
H          -0.27227751392797    1.82031776723835   -0.21003726901156
H          -0.22090826093245    3.21502108109642   -0.90161895547934
O           1.34647742583468    0.50376871150800   -2.18085982868257
H           0.77400697152022    1.24254693810274   -1.90148498085381
H           2.39674670608620    0.28268945172675   -0.91564270416962
H           0.76877302187675   -0.27232645539377   -2.17301505549519
N           1.02166740245725   -1.69989627754645    0.69030820488100
H           0.38108443189159   -1.36692917626431    1.48593388214581
H           1.40697125553106   -2.61255147992093    0.91074260802360
H           0.44074853339120   -1.73735365430221   -0.17880045319190
H           1.79020597499322   -1.00132916399883    0.52413891618605
