    26
        -50.45934730  Gyration_radius:  2.53803705991 Dipole_moment: 4.124
 S          -1.45050406263094    1.03566586243829    0.88832533051040
O          -0.36212524431343    1.33909471704933    1.82950110561695
O          -1.48688624104426   -0.37310650356283    0.59206687726606
O          -1.40412977729844    1.89557193439586   -0.27830956662796
O          -2.80332803572015    1.40626181437949    1.63454259973595
H          -3.02298610975962    2.26380420279374    1.28237848891914
H          -0.05960804785848    1.24991863899103   -1.02601147967795
O           0.86795799355813    0.96762855223094   -1.19936146673462
H           1.38660876307137    1.69946251880951   -0.81005614042577
O           0.22685354151470   -2.95011754395029    0.93559311539671
H          -0.47388311511557   -2.95820405603144    1.59128869313590
O           1.55164252752257    2.79422986880040    0.64168217684502
H           0.85709122279162    2.34884413614133    1.17168139767289
H           1.21443864077224    3.67254821621985    0.45894981252270
O           0.45926373312819   -1.10559776963340   -2.98462999026150
H           1.29808688488513   -1.35142044517023   -3.37645301663323
H           0.60518417724892   -0.28396885655742   -2.49106731251266
O          -1.18344259250227   -2.40964686062120   -1.17687117956508
H          -0.67580294818802   -2.04354199314864   -1.92031171417984
H          -0.25919101431282   -2.88979712385745    0.06133106481096
H          -1.51490201120892   -1.64259098137266   -0.68011532030951
N           1.27256783286557   -0.54608564480651    0.98262326367061
H           2.22549465881750   -0.51911655940605    1.33200212870709
H           0.64717473170784    0.08778733298434    1.54044246649978
H           1.21426408993377   -0.14342078324369    0.01375295005247
H           0.87016039214028   -1.54420265387403    0.98702573556833
