    26
        -50.45387480  Gyration_radius:  2.63099943134 Dipole_moment: 5.310
 S          -1.33346609181472   -2.24136219523593   -0.38022094292689
O          -1.72874706977144   -2.29923180505001    0.99903312101401
O           0.09630518821219   -1.90364282493051   -0.50795410980521
O          -2.14688273072138   -1.35248013311421   -1.19509635038802
O          -1.49600574575773   -3.69076986642686   -1.00488329169892
H          -1.40476531611778   -3.56104368108693   -1.94590831897266
H          -2.27502291202268   -0.13493129222458   -0.19803156922556
O           1.43077123025104    1.99779420687462    1.27759881052320
H           1.42998006988890    2.78869192480187    1.81714196343831
O          -2.26453403635381    0.52561685560203    0.55093765906637
H          -3.05086363737486    0.32395538679537    1.06217460235036
O           3.22695899316177    0.83681900869661   -0.50550436853852
H           2.72441876130436    1.27344884666689    0.20134161155392
H           3.70249642978453    1.52530997087879   -0.97310900236594
O           0.92231082991164    0.23346245094767   -1.93730006814958
H           0.56577042674483   -0.59551237258988   -1.57220076530276
H           1.82061579498310    0.30420686245212   -1.56917960355954
O          -0.27855993995424    2.18744357247630   -0.62967152625212
H           0.77540405129788    2.16455121382882    0.52213285879079
H           0.10457892739459    1.52171704437920   -1.25850196140896
H          -1.12448772565247    1.81739656379568   -0.34929695996963
N           0.08497068407934   -0.33355318271615    1.54791982390863
H           0.29418745723026   -0.99711561110284    0.73609992036306
H          -0.87650957684927    0.03043929661588    1.31386982641044
H           0.04452976731435   -0.88209768926067    2.40137625167973
H           0.75654617083350    0.46088744892642    1.59723241945262
