    26
        -50.45709964  Gyration_radius:  2.57774284728 Dipole_moment: 8.126
 S          -2.68076100037799    0.44507757249145   -0.53761709602093
O          -3.82952703288474    1.22808164513575   -0.85816398097544
O          -1.94817511292819    0.87374601241333    0.65464887297208
O          -1.63156475067670    0.73951354997541   -1.75549758137446
O          -2.84524481859345   -0.99749128175962   -0.55924049052298
H          -1.46312335761148   -1.57791041944124   -0.72933825827385
H          -2.10549063642428    1.45017681487375   -2.17312971076712
O           1.63318040189543    0.62460300383231    2.12081442075028
H           1.71786582976759    0.82264117141991    3.05371272901256
O          -0.53503681935697   -1.96350164062165   -0.84649277272173
H          -0.65329258558445   -2.72204678334873   -1.42010310948095
O           3.17414291122591   -0.59945508752405    0.29041548350720
H           3.21570119917477   -1.50751960759253    0.59533429200407
H           2.77093278264319   -0.08375296525525    1.02106515538989
O           0.30871903810806    2.05596472532560    0.13969097491178
H          -0.60949124718928    1.74646054935542    0.33648269317980
H           0.82478815521649    1.83974919827621    0.93431959495974
O          -0.41022340977013   -0.94613398854099    1.77727655436097
H          -1.09248372208475   -0.30022909671314    1.48255954854811
H          -0.35008636343336   -1.57663052607027    1.04856215440079
H           0.85633420930723   -0.00254269232739    2.03826792949486
N           1.14227008823638    0.08339741801418   -1.34625260837122
H           1.28658197810755    0.30711141382390   -2.32395322833736
H           2.02727174495572   -0.20858067487578   -0.87265019436856
H           0.76347433751200    0.95243423675046   -0.82121170455836
H           0.43323819075459   -0.68316253754286   -1.24949965771018
