    26
        -50.46802602  Gyration_radius:  2.56463785475 Dipole_moment: 2.929
 S          -1.78102552397159   -0.95785159097439   -0.67579354954752
O          -1.19911917701303   -1.27846058155631    0.62491810701597
O          -0.93242057835126   -1.34266054196535   -1.77465587947777
O          -2.20162816558317    0.43851822620118   -0.73685782266410
O          -3.10177293767661   -1.82345791301401   -0.79954976143278
H          -3.68053320049197   -1.48454641664995   -0.12211376799257
H          -0.78604831983530    1.11751221452981   -1.22514510991344
O           0.14189630494375    1.36364582249465   -1.44996338733176
H           0.23586033694393    1.15794801975240   -2.38260088088285
O           2.52057116978144    0.87190519518231    2.00817325104336
H           3.36313257160371    1.32689356515812    2.00975209331987
O           1.49106743444612   -2.46015584468063   -1.76802892302983
H           1.40477539838655   -3.41416527996259   -1.75394311518882
H           0.58782986633962   -2.10837207440588   -1.91619110592676
O          -1.66829755335899    1.20003572847036    1.78016178412404
H          -1.42183471146372    0.29929795124882    2.01741198318472
H          -2.00909109001938    1.11625489685506    0.87162227930673
O           0.61718252470036    2.51090830511456    1.18672880863629
H          -0.23089372094938    2.16416321222975    1.53799186670291
H           1.83118333013376    1.56252338981386    1.83378626876036
H           0.53066076526248    2.46288363325336    0.22822233241030
N           1.28640661578499   -0.55096785997205    0.11411425058365
H           1.01710163849396    0.23159508697979   -0.52209017156257
H           1.90081560659818   -0.18197404552529    0.87496321681026
H           0.37865275463587   -0.91446723896995    0.49457829721561
H           1.70552868059186   -1.30700584958369   -0.45549106423799
