    26
        -50.46802609  Gyration_radius:  2.56446085795 Dipole_moment: 2.929
 S          -0.15663434046220    0.34055652686480   -2.09840885213613
O           0.86061652882358   -0.67841455814789   -2.14844107193344
O           0.17829303609811    1.42648486314663   -1.18090104526633
O          -1.48824148890080   -0.19073542681887   -1.82520374772345
O          -0.22485355395347    0.98352037171741   -3.54435494086878
H          -0.96324842099609    1.58526049209309   -3.50965839766826
H          -1.09570597912581   -1.30500309636870   -0.68144167595703
O          -0.70109258922075   -1.86827659581873    0.02508343672519
H          -0.29987187648280   -2.60639260617198   -0.43876159966460
O           0.39222600208594    0.62531239038053    3.25524451896228
H           0.52796641782305    0.18915647923948    4.09690040245161
O           3.15833451753249   -0.88281837203638   -0.80651657381614
H           3.85329917488263   -0.43454678031070   -1.29005699510531
H           2.38186338816899   -0.90397038819929   -1.40501847911165
O          -2.27333493721685    1.48709246571745    0.11626605917141
H          -1.46776054087691    2.00597979296338    0.01491802632303
H          -2.22742732246391    0.84197403971746   -0.61196673109880
O          -1.84789113718731   -0.23777098345811    2.15049347493180
H          -1.67014353089516   -1.01335155533856    1.60694865389788
H          -0.51975953421493    0.37667271696284    2.95666081764918
H          -2.14169601253258    0.45461324574158    1.52030348754163
N           1.16438912626715   -0.03348073771021    0.78469883524555
H           1.08291784079915    0.28428379960468    1.77720564244523
H           2.11707181276954   -0.31637222664481    0.49468389352397
H           0.51812106061348   -0.83766068845372    0.62578582475094
H           0.84256234868056    0.70788681135700    0.11553701676737
