    26
        -50.46522048  Gyration_radius:  2.54077306451 Dipole_moment: 3.676
 S           0.96266134282092   -1.85174347472966   -0.21626715138934
O           0.39603943462239   -1.86887483722069    1.11824840449355
O           1.81443910591667   -0.69428710441914   -0.45716736794432
O          -0.02809798131772   -2.01902835100096   -1.26914233027152
O           1.90574742762883   -3.12649904309884   -0.28855812846694
H           2.17591899223829   -3.17486783773164   -1.20059847883736
H          -1.58583594340660   -1.61216871069056   -0.54368007173380
O          -2.02020871314300   -1.30217978554597    0.27445209328913
H          -1.36466439610953   -1.58614080681606    0.93784200370013
O          -0.18412385742913    1.90944091002835    2.35705408262819
H          -0.44618443868848    1.80125042464747    3.27239406741738
O           0.74895747359880    0.11404711533088   -2.71255474531292
H           0.18354964928868   -0.66975544617041   -2.69175277167338
H           1.32719607093132   -0.03477462112976   -1.93532697735652
O          -0.58213809971457    2.19217108143381   -1.85044073729060
H          -0.11895361946700    1.41577635435850   -2.27169574080757
H           0.10341594867678    2.84300858280885   -1.69027216241968
O           1.75388103686285    0.18414387038630    2.06465633867604
H           0.61399820762877    1.32043430043648    2.23845526578983
H           1.25299897320350   -0.65264657747637    2.03368062135340
H           2.12484406643847    0.21495678509325    1.16981492980074
N          -1.81867491129462    1.32560404591146    0.33464295241030
H          -1.34361155585239    1.66892360951779   -0.54729876188593
H          -1.93720320822550    0.26441404096335    0.28798519129697
H          -1.20761746654254    1.56885702596138    1.15938102327125
H          -2.72633354864512    1.76993846917484    0.42614845125631
