    26
        -50.45987122  Gyration_radius:  2.6346909752 Dipole_moment: 3.583
 S           1.26581285297770    1.23449479242741    0.37520519844187
O           1.40645928637291   -0.13877070692335    0.87509423743537
O           0.33322415893947    1.97862693318006    1.18161181135943
O           0.88024617351168    1.23478908085702   -1.04261481241882
O           2.69434377160536    1.86576937214440    0.46330490241928
H           2.74400535314870    2.54624719324826   -0.24136706718362
H          -0.69847062656675    0.97253325220921   -0.87584136726385
O          -1.64807735481533    0.84804723404684   -0.61576046991220
H          -2.00249120653425    1.73780990998532   -0.55536511498869
O          -2.11796122419657   -2.70404118921153    1.36234115233698
H          -3.04728324586547   -2.93153648960139    1.40862489654995
O           1.14163850736308   -2.05613277524225   -0.95686476781230
H           1.31182159490992   -1.29118454990856   -0.36971362803421
H           1.54628349901342   -2.81231281454906   -0.52815411714098
O           2.40444889541400    3.22887186286150   -1.79437361730078
H           3.01031208689013    2.94721749690993   -2.48352901443840
H           1.69683891531626    2.55216168420074   -1.75668965620366
O          -1.54844953823744   -2.00054016709811   -1.09353004083435
H          -0.57449332534607   -2.08399793278556   -1.17691066934783
H          -1.91156783503589   -2.57686988160854    0.39490705326134
H          -1.72940943773040   -1.05721890853793   -1.17926377197368
N          -1.05025846372493   -0.30990856565574    1.75229542667557
H          -0.01047043900280   -0.36387609996994    1.55417029192813
H          -1.42369923184136    0.20640941336434    0.91629851879541
H          -1.48276882131359   -1.27035472859235    1.79472854189715
H          -1.19003436522960    0.24376656435106    2.59139606374468
