    26
        -50.46485490  Gyration_radius:  2.4975530484 Dipole_moment: 3.672
 S          -0.36020435415368    0.20162069803551   -1.95091042015822
O          -1.33233724936064    1.25381831993939   -1.91641147591204
O          -0.87766959870117   -1.03891262056211   -1.34434425952687
O           0.88929868494047    0.57474323236191   -1.25922068887874
O          -0.00389393630505   -0.12123122546193   -3.43273207100857
H           0.74538350603193   -0.74884477552687   -3.38935409713101
H           0.27106089127383    1.65508586525622   -0.20244919157443
O          -0.27368122316989    2.20571033790005    0.41280814653459
H          -0.73265686221481    2.81335852470632   -0.17436153320759
O          -0.48709319820632   -1.12503927830211    2.58647677035206
H           0.11479573460720   -1.54805102400375    1.93524402892536
O           0.99648218857150   -1.70269062334681    0.41326292527930
H           1.48370229334633   -0.88028150866023    0.29477869853297
H           0.27421965204897   -1.64645755223507   -0.24716328133786
O           2.07178498969915   -1.48466077091410   -2.47806942535326
H           1.95247212629476   -0.68055052000510   -1.94218799935874
H           1.89063480880591   -2.22602768979610   -1.89231784638325
O           0.77854067981213    1.28418462804522    2.81610179927821
H          -0.00096302274746   -0.34928899004648    2.91965156927399
H           0.43347905796797    1.75997736753564    2.04542585873020
H           1.70276167733471    1.52300946605856    2.89673038957745
N          -1.94051591706694    0.06091622862963    0.79104429240422
H          -1.48064060548458    0.99406148182372    0.70702757670696
H          -1.69670820085800   -0.45478390711570   -0.09887916105832
H          -1.47300432578169   -0.46918769918319    1.61458454238447
H          -2.94524777657487    0.14952204526337    0.89526488301888
