    26
        -50.46277093  Gyration_radius:  2.5398846065 Dipole_moment: 3.871
 S          -0.38793660873281   -1.95695423926151   -1.29749225310347
O           0.29324494283736   -2.05032569522422   -0.00634370374788
O           0.01525946344166   -0.75321378046723   -2.01886277455395
O          -1.81163260121311   -2.12881861471031   -1.20942259665399
O           0.16195737471869   -3.17281953290742   -2.17142797766207
H          -0.49347741503116   -3.85366769830726   -2.05150112746756
H          -2.73577767352729    0.02255559162869   -1.26728512787569
O           0.59550265285246    0.60327619927521    2.91366343403033
H           0.98323468008180   -0.17737572085171    3.31259619762073
O          -2.00822736748967    0.63736870787445   -1.13244152558625
H          -1.24737756225310    0.19164610703284   -1.57067276693373
O          -0.72526352332275    2.75229125825507   -0.03080473611978
H          -1.23934084050039    2.85502190655247    0.77362719152180
H          -1.21943432901013    2.11705693082697   -0.57931979782149
O           2.24841500454967   -0.47461219826862   -0.71264688534041
H           1.69275036323026   -0.40061386546581   -1.51157520513003
H           1.76889025339647   -1.18851752308960   -0.24029757356303
O          -1.26112256375415   -0.36834348047034    1.34632302844821
H          -1.66980410580132    0.07694091103432    0.58567513636224
H          -0.76715440787142   -1.11313537115869    0.95183230275980
H          -0.20086929547454    0.27576088492621    2.41793298414825
N           1.61704091954407    1.63733430033304    0.69671468850214
H           2.37714058918252    2.30445019433538    0.77121042085645
H           1.34245923378198    1.26458108769027    1.64638040630826
H           0.76268289177402    2.10041264808716    0.29966807587710
H           1.90883990465789    0.79970097237276    0.08447014501756
