    26
        -50.44296659  Gyration_radius:  2.77480558565 Dipole_moment: 5.091
 S          -2.15130061417544   -2.21837186305567    0.33090689711285
O          -1.47673749696439   -1.84620286053362    1.54526174546953
O          -1.35393171861852   -2.85590071185696   -0.66410927191424
O          -2.90911980176229   -1.02051656292429   -0.22496969530788
O          -3.32824086680614   -3.18348176811412    0.72083120221852
H          -3.72766092540589   -2.78911180501173    1.49211979800793
H          -2.24186448258697   -0.31720330117889   -0.70590014267256
O          -0.23848364311747    1.97907428828103    0.76782611929912
H          -0.64935150225398    2.72176865515446    1.21052442645067
O           0.69224459310407   -1.17387122734010   -1.20753406857829
H           0.13521372394392   -1.96737645991185   -1.22763283312166
O          -1.28768988706535    0.54114206156377   -1.23605332125757
H          -1.00376546227348    1.13128210144060   -0.50160919884648
H          -0.50323183640155   -0.04771653941050   -1.41111077970779
O           3.12934958973593    0.18194643874130   -0.26980374428983
H           2.70158052163996   -0.10318871703127    0.54717562487098
H           2.71392812029841   -0.33680513665099   -0.96751116317137
O           0.85424855802931   -0.50083705857150    1.39001046331973
H           0.85557404087685   -1.00549927276571   -0.25133838802642
H           0.49387423717083    0.40095555522139    1.35690652498831
H           0.10244841025812   -1.06432895797301    1.64426657033426
N           1.91443629948373    2.76203472956247   -0.51919542897899
H           2.47226873746955    3.51730237811525   -0.14140939250030
H           1.74852173998620    2.95727386324653   -1.49864801115746
H           2.47707094659452    1.90664999377581   -0.46788944184906
H           0.58061872866286    2.33098219688855    0.28888549983712
