    26
        -50.45620448  Gyration_radius:  2.77467166926 Dipole_moment: 2.691
 S          -1.12117831903351   -1.74030577242406   -1.95346674965821
O          -0.08271263239131   -1.35938619135690   -2.89308604643678
O          -2.10146517331902   -0.67552734746234   -1.76086940127318
O          -0.59654931859711   -2.23283381456403   -0.68987411851656
O          -1.90143830044280   -2.96093513216821   -2.60545433734473
H          -2.09253018936375   -2.65831452964153   -3.48881243189482
H          -0.73897673587020   -1.68343975333710    0.85550108638143
O          -0.33747183285496    3.12869341169469    1.10880770791098
H          -0.85687664528691    3.73948085724710    1.63154016454122
O          -0.84909312117511   -1.16148170212767    1.68822198244547
H          -1.61937142828822   -1.52740886053369    2.12490982306545
O           1.53804283198622   -0.54685367907086   -1.05574764407043
H           1.34975046896642   -1.33690145504759   -0.53344697769642
H           1.11702945682965   -0.76930663463873   -1.92171361298924
O           2.90366702999853    0.90266765176518    0.86800540180444
H           3.26841706279493    1.71119312234652    0.50533637425687
H           2.59484755076855    0.37359168629752    0.11595588764611
O           0.75899668315020    1.14515969320122    2.54956970340369
H           0.33684059957940    0.27858526730588    2.52344571729485
H           1.61352668653889    1.03788503167654    2.09074250639144
H           0.10099497619810    2.51703322534626    1.74394860286875
N          -0.66539138308252    0.79836546985246   -0.18860819053717
H           0.27751996424374    0.51626052322466   -0.53378814995570
H          -1.36461911450006    0.42333024795457   -0.88714019757202
H          -0.82488252824171    0.26771321949490    0.68998224784338
H          -0.70707659862672    1.81273545497056    0.01604065210700
