    26
        -50.45276099  Gyration_radius:  2.54810140045 Dipole_moment: 4.941
 S          -0.54424045406717    0.18758742320090   -2.64085744989103
O          -1.72085303722230   -0.61259117641106   -2.38455489204227
O           0.64739682314412   -0.29131532866260   -1.96060771357042
O          -0.78338140826814    1.60745451595077   -2.36332899084045
O          -0.23904474135527    0.08498138531976   -4.18811939913681
H          -1.08477256145629    0.26986366888127   -4.58506281224694
H          -0.75507743522118    1.81283717424611   -0.92868108271927
O          -1.61248470051487   -0.61244519512312    0.23317301589358
H          -1.89375943928627   -0.67438910285913   -0.70785035705283
O           1.86124203447169   -0.67616507252484    1.96354153876488
H           2.49446636603884   -0.81140504931862    2.66875094508903
O           1.81280061647735    1.12780683618191   -0.04271929069602
H           1.62479388843894    0.61950056064843   -0.86042399495387
H           2.00496844493912    0.47115230801055    0.65617180728647
O          -0.62191667701324    1.69152112998628    0.10455338357638
H          -1.05692699471166    0.73940081786439    0.26429130999570
H           0.42299016845805    1.55730143532685    0.16161620309079
O           0.50594481159744   -2.13422587282920    0.01675819173949
H           0.67881538518457   -1.66860951082358   -0.82125021963896
H           1.15372098958676   -1.80417136787694    0.65713890541289
H          -0.87742295393557   -1.28470054224515    0.27957541041244
N          -0.49842112805610    0.12165954056732    2.95617177556181
H          -0.60530424718336    1.12729090849944    2.89526834418765
H           1.00034478389820   -0.39656965855585    2.38542620933732
H          -0.72474404353359   -0.15852424518631    3.90226738697954
H          -1.18913448046680   -0.29324557227797    2.33875179548900
