    26
        -50.46422987  Gyration_radius:  2.5494793332 Dipole_moment: 2.195
 S          -2.36426463239998   -0.69102481390065    0.37525844383105
O          -2.03139580006617   -1.58016408271452   -0.70746525167927
O          -2.81798167634243    0.62670425803689   -0.05475169682831
O          -1.27325812432756   -0.57163957056800    1.34672869717742
O          -3.58736440498247   -1.33286323370056    1.15226512884267
H          -3.95403263254744   -0.58509447908641    1.61407918431258
H           0.06333628530829   -1.43514676419881    1.03066010846503
O           0.38407194506847    1.57662578525589    1.72872125534052
H          -0.21067869414421    0.82693941371442    1.90222796494242
O           0.88774852951957   -1.89676114199907    0.73046011991174
H           0.72301450564488   -2.83273556569392    0.85111009398738
O           0.29333983571695   -0.81120294455371   -1.65387139418674
H           0.71854546554142   -1.25566276523317   -0.89111317256349
H          -0.62725370696922   -1.14344761614742   -1.58505670990876
O           2.50010110629050    0.84223797806969   -1.76939692364846
H           1.81169809786422    0.20283261171117   -2.00621911099287
H           3.27237711325510    0.63014644424719   -2.29489770547719
O           2.59787649132921    0.30339844536415    0.98691460627340
H           2.20347622223066   -0.58037760349355    0.97734435069578
H           2.67414611230592    0.57994744004804    0.05860827280547
H           1.28669768365013    1.18838229820617    1.63107192217068
N          -0.50188420115734    1.61315975930343   -0.70975045701322
H          -0.06854192863593    0.77625828202406   -1.16384039657853
H          -0.05817742403255    1.75139511618295    0.26618629085651
H          -0.40771572761965    2.43843010819535   -1.29144294869382
H          -1.51388044045018    1.35966265089429   -0.52383068207908
