    26
        -50.46953072  Gyration_radius:  2.48452085767 Dipole_moment: 4.471
 S          -0.26606569133979   -1.35835291003582    1.24505318099208
O           1.06407703654446   -1.39325528962200    0.61594655961620
O          -1.26606413047656   -2.01379742987973    0.44399209546832
O          -0.61905982164704    0.03410606800633    1.53955734801502
O          -0.16135162749353   -2.10542886101020    2.60710764079612
H           0.56363454248513   -1.61949353619550    3.04861904987767
H          -1.80107136926068    0.67884792460021    0.53994778995379
O           1.67506660903374    1.78884884511091   -1.89927195068663
H           1.37332554036750    2.48046986906364   -2.49001774573844
O          -2.38502858848698    1.11210568377008   -0.12314192836748
H          -3.27956931136045    0.98528559535594    0.19669996264059
O          -1.73941842593311   -0.84898049553573   -1.88304051545636
H          -2.05359833765407   -0.01388038543377   -1.48383220280939
H          -1.72370109426007   -1.46668606082938   -1.12125597949231
O           1.81824134200329   -0.39222436238071    2.96746905847282
H           1.36310819710734    0.45452399628357    2.95607932136170
H           1.89001201419972   -0.66868914759044    2.03746852602305
O           0.33734783783357    2.21699787489063    0.34680199984053
H          -0.53014753332216    2.53788064532184    0.08084568614973
H           0.14069019098595    1.39649196861025    0.84251945140612
H           1.29279096050804    1.99499026703001   -1.01060514921904
N           0.87549631232001   -0.76383867220941   -1.91631687137961
H          -0.18717378529303   -0.77603828293933   -2.05500173307289
H           1.33874896406537   -1.40438257360821   -2.55138457853726
H           1.24589738158423    0.21162270962439   -2.02332046711551
H           1.03381276751899   -1.06712345040024   -0.91091854874118
