    26
        -50.45152948  Gyration_radius:  2.6734211343 Dipole_moment: 6.431
 S           1.75973456075589    1.41552323770001   -0.48463669195064
O           1.02788226702917    2.55972672787288   -0.95185218314652
O           2.02246611407817    0.42587048022917   -1.52246121848772
O           1.04513816800109    0.77138159844230    0.65240579728769
O           3.15758746527272    1.84980425882329    0.06878610694581
H           2.96144031547567    2.32390270822253    0.89940311903416
H          -0.51222627163617    1.13369864816214    0.10491339492856
O          -0.03563577779536   -1.69500031751561    0.88392516819873
H           0.53579969434607   -0.91154252665245    0.99095550388980
O          -1.30680791802472    1.26919893106718   -0.45828661993295
H          -1.10987777985907    2.11269304611922   -0.88202840434491
O           2.03819137610957    2.48305102157444    2.40549092892587
H           1.46895246780427    1.84620571333834    1.93064438959609
H           2.39416729751814    2.01921943748641    3.16662805769465
O          -2.01327242118298   -3.01234133768935   -0.82199095523454
H          -2.54017259508636   -3.81018935517164   -0.75790038174168
H          -1.33500989755473   -3.07167842142342   -0.13794857750584
O          -2.57362827371595   -0.78929268890021    0.95398179275209
H          -2.81695588501857   -1.36345622201157    0.21748010318637
H          -0.92150902892338   -1.39200017827133    1.18237013894037
H          -2.40565919627025    0.08521707742287    0.57640444011918
N          -0.18283194490988   -0.87234326858303   -1.64148340329888
H          -0.45774414222404   -1.46226040809963   -2.41929238658605
H          -0.84837612181727   -0.09017900642674   -1.47155943497513
H          -0.13524311435183   -1.41448689047026   -0.73383704919856
H           0.78359066195043   -0.41072224530147   -1.75011162508648
