    26
        -50.45376531  Gyration_radius:  2.44419237765 Dipole_moment: 7.300
 S          -1.21189806599293    1.36837548633499   -0.01016389454488
O          -0.51760301638875    2.47362257159501    0.62348740072772
O          -1.35000064710671    0.24227617802835    0.94365285151085
O          -0.19334513343620    0.83172458483332   -1.11755013239481
O          -2.43760555299262    1.65359761902503   -0.69020795048937
H          -2.72015761965405    0.13621514812065   -1.44948198997477
H           0.67862505502585    1.24654591671721   -0.93821679343291
O           2.46184252399364   -0.85480250141619    0.69862618887435
H           3.04234883191702   -1.56951836809815    0.96187752539183
O          -2.93580126613980   -0.74120129956169   -1.82112763045537
H          -3.87690270183001   -0.71873841690462   -2.00400775557136
O           2.32880552638890    1.52318241476089   -0.62036185270220
H           2.78421781925089    1.61118626268720   -1.45939675829774
H           2.60223424414931    0.67282799846468   -0.23181501336676
O          -1.61372811701280   -2.28475968707873    0.02540622787714
H          -2.14838536299892   -2.04385597751856   -0.75099866497626
H          -1.60827445727209   -1.45937518683868    0.54115334641884
O           0.75892381785360   -1.77238959965085   -0.98166267767978
H           1.78547931973831   -1.26796259645894    0.06090827897942
H          -0.05685460685797   -2.16578463288559   -0.57334470916686
H           0.42329873180223   -0.96337390797526   -1.39375857731719
N           0.80673866224865    0.81239730140470    2.07792260531060
H           0.90290218381701    0.93235707534313    3.08001642751951
H           0.67437974281935    1.72630598799555    1.57728070364940
H           1.57008321481618    0.23571231382097    1.67254329740481
H          -0.14932313597420    0.37543530531787    1.77921953670399
