    26
        -50.44372281  Gyration_radius:  2.64413091676 Dipole_moment: 4.726
 S          -1.15951252561204   -1.94158067873266   -1.90882775863773
O          -1.92335937673158   -3.06638337865443   -2.31415513339087
O          -1.33389376365976   -1.42892037454103   -0.58368438278787
O          -1.56413811206079   -0.72366680950786   -2.87169403503351
O           0.31099354659091   -2.15022746582259   -2.21097020438253
H           0.86851761248744   -1.33375952677922   -1.78146841721552
H          -1.73662111729231   -1.12102826129679   -3.72126245721944
O          -1.46022597645728    1.34167824754062    1.56460629551604
H          -2.41441572249341    1.35387527628743    1.64814811107885
O           1.98823483328066   -0.44277447369781    1.42983867733891
H           2.85879785935851   -0.60528437868545    1.79390296176532
O           1.48186309967501   -0.22915445225182   -1.20230094214480
H           1.70497751916739   -0.44601098019098   -0.27082464460643
H           0.75522954134788    0.44989539662231   -1.14928954810966
O          -0.62004786378442    1.33484142754358   -1.03043121953593
H          -1.20005429910864    0.72440551590085   -1.49627305551294
H          -0.93677273502883    1.35425680541976   -0.10147460055154
O          -0.64772928055728   -1.11788125138436    2.02187146342101
H          -1.17694787401264    0.42437342864582    1.82901672372818
H          -0.97035362834902   -1.41751210138168    1.15715537066343
H           0.31522534362221   -1.04950880908154    1.92726198804463
N           1.38398825279213    2.14053747835369    1.46683984106828
H           1.82342616990153    2.81991375203699    2.07477812563674
H           1.80606485732712    0.54101122320463    1.51871313335538
H           0.39431290640792    2.10927823101778    1.69610882555457
H           1.45244072319176    2.47962614943096    0.51441491196158
