    26
        -50.46797319  Gyration_radius:  2.47274522188 Dipole_moment: 6.435
 S          -0.65908827757716    0.13808714298045    0.91113107697363
O          -1.68491795007537    0.09056202530097    2.06336534152313
O           0.61801267795518    0.54663398055390    1.51114500154526
O          -0.52573009125033   -1.20930823033690    0.35652495322492
O          -1.10820252332420    1.09366119396914   -0.08407597544260
O           1.36737614251057   -1.45729665874317   -1.47059818535562
H           2.28310568508552   -1.00546153195145   -0.43489862416086
H           0.58334234119790   -1.58656853133269   -0.89339972707723
O           2.12638098966352    2.24652702886464    0.10446982370408
H           1.48005793955413    1.77454244329392    0.67131158745944
H           1.91790908088097    3.17844492799821    0.18354384018673
O          -2.92505144732645   -1.98443517050072   -0.45480780936950
H          -3.11966384476940   -2.80697230494736   -0.00278889392453
H          -2.00065486135733   -1.75405056679940   -0.21986737169433
O           0.75534953816732    1.03806869696503   -2.00266583415089
H           1.39908073025047    1.57932456163434   -1.52045161084275
H           1.16914135086807   -0.60061783908742   -1.92891587863113
H          -0.05215841789062    1.08347980297863   -1.45430112252384
O          -3.64957358996548    0.42698156829536    0.46599501260019
H          -3.01901802073764    0.95259903780436   -0.04965737911308
H          -3.64950407975122   -0.45741746204308    0.04354934063026
H          -2.56237600186030    0.22115598577340    1.59141327553864
N           2.75050346803295   -0.51380143231036    0.44998646977119
H           3.36490902883216   -1.12901144656938    0.97135728097254
H           1.91237846394922   -0.20607673423856    1.02861546691052
H           3.22839167894255    0.34094954244621    0.16401996124296
