    26
        -50.45592069  Gyration_radius:  2.62494924861 Dipole_moment: 4.120
 S          -2.36128300841481   -0.60799364408770    1.08218285366966
O          -1.41677761230735   -1.35035649412481    0.28493098910229
O          -2.93247535537661    0.52175202101037    0.33691513326546
O          -1.82319537431702   -0.18343728026281    2.36323034812471
O          -3.57614388386593   -1.58069105888377    1.40141815740917
H          -4.08655463148597   -1.08734832256248    2.03736896768304
H          -0.23911029185570    0.16269827056142    2.05771681107816
O           0.59717756419874    0.42692762990544    1.60374557716115
H           0.98106977584499   -0.40234211023906    1.27232390189491
O           0.75089539916016    0.77770887367015   -2.30723014510482
H           0.74250928193370    0.82003870869967   -3.26363466362681
O           2.76743473257965    1.04988216559858   -0.41357795648175
H           2.28790038375415    1.37628699869122    0.35402771215878
H           2.14480534522895    1.06034460773287   -1.16130845389484
O           2.33474370217993   -1.46823101069816    0.38355829914555
H           2.69486004462510   -0.61553991997355    0.04978015239261
H           3.04719216345832   -1.91906720925400    0.83692801384302
O           0.41555343799976   -1.66341424980952   -1.59510615349335
H           1.14658988001979   -1.84391002733127   -0.98306167525535
H          -0.37112178498550   -1.64448806117134   -1.01467874746191
H           0.62117619300264   -0.20236798801728   -2.07204647538975
N          -0.74241233495153    1.70327999558793   -0.26927252189758
H          -0.33714311645476    1.44150047605640   -1.19109924882976
H          -0.79173629594564    2.71061145682699   -0.15968263856883
H          -1.71745225509282    1.26078505502053   -0.12232434276366
H          -0.13650196894044    1.25737112701812    0.48889609591588
