    26
        -50.45592061  Gyration_radius:  2.62486822369 Dipole_moment: 4.126
 S          -1.49567200867173    0.56280301777821    2.13604341014625
O          -0.51817707621345   -0.45932723724363    1.85558714844359
O          -2.67672078640945    0.43765462180474    1.27145524683597
O          -0.94780413584574    1.90787770843006    2.09783968036291
O          -2.01228862306813    0.32668830571374    3.61959746512680
H          -2.53727063698613    1.10321143588324    3.79178027457970
H           0.17985594059447    1.86647074222659    0.89382232360285
O           0.67135197579679    1.62882327145436    0.07096303255462
H           1.31166422667343    0.94969455457844    0.34260249747110
O          -0.23472125662909   -1.60861891415334   -1.96228189585242
H          -0.47357377286768   -2.42338370793268   -2.40461588778109
O           1.78877287636296    0.24993885737076   -2.38187280790289
H           1.39795926641637    1.06153418566956   -2.04382490731065
H           1.08340295644279   -0.42036709587499   -2.39266006307102
O           2.76752609208501   -0.29430877855923    0.04916281727289
H           3.68751890327611   -0.08633130392094    0.21279079964875
H           2.60487475394703   -0.15850123088611   -0.91175603098205
O           0.77146766379791   -2.18646831945030    0.32507248818157
H           0.16210840832386   -1.88452030670321   -1.06837121611351
H           1.61904843142598   -1.71474418479140    0.34747202065636
H           0.21984612403730   -1.69863969048429    0.96850505354665
N          -1.48902274999097    0.56597244229032   -0.99402534058454
H          -1.22622840319644   -0.35100286021709   -1.40943134425440
H          -1.97681814947780    1.14976301843696   -1.66513072361638
H          -2.08416685158846    0.44254730678221   -0.10031958116036
H          -0.59293314827117    1.03323416170581   -0.64840445982320
