    26
        -50.47398754  Gyration_radius:  2.43803475062 Dipole_moment: 2.194
 S          -1.82673962546762    0.06525908420692    0.60117619961521
O          -1.57686475389238    0.03803448391263   -0.83902828917584
O          -0.82716769286090    0.86396102013175    1.28316290015363
O          -2.01881091853169   -1.25462887470967    1.15548245875297
O          -3.20353359983074    0.82026279278230    0.79695136562229
H          -3.80461984385172    0.08527327332413    0.75954517211495
H          -0.65851344106382   -2.16376444359829    1.24992674150360
O           2.17728469018671   -0.22265751963926   -1.35836268458461
H           1.58943921010319   -0.98366580562523   -1.57700921535196
O           0.19016038910799   -2.66431762455125    1.20920469764861
H           0.04251923667151   -3.48446133399510    1.68234178148492
O           0.17685588632353   -1.97194379476692   -1.48534191493711
H          -0.55905063189224   -1.34973929033615   -1.36023789687111
H           0.27081786966046   -2.42939381331954   -0.63526033195538
O           0.61688061195914    3.00478567538535    0.67561798684220
H           1.44032575818266    2.82845789900625    1.13751555836728
H          -0.02643054925193    2.36164341072072    1.03824146462801
O           1.62525813185142   -0.28020623550970    1.25725310966340
H           0.77093007504372    0.17823797785767    1.35015707124900
H           1.40652643662602   -1.21589344497073    1.37534172158678
H           2.20419430060471   -0.22504475426667   -0.37422098223397
N           0.39505075067231    1.62555832885327   -1.61248752461185
H           0.54189793182844    2.31663157927832   -0.83826245545409
H           0.29306565652635    2.08112917627173   -2.51194933841301
H           1.22248987724206    0.91297751813133   -1.60477498385370
H          -0.46196576594472    1.06350469544360   -1.37498260178410
