    26
        -50.45831104  Gyration_radius:  2.61314830086 Dipole_moment: 7.257
 S          -1.34700353696288    0.73500265228906   -0.57189325484230
O          -1.53429895487586    1.11625922664847    0.85048553268861
O          -1.31804343951427   -0.69824662343160   -0.71011579978002
O          -0.15885125171031    1.38308033034873   -1.10303507885330
O          -2.59047528626207    1.27388072321524   -1.34688583927722
H          -2.64585796728799    2.20875204534604   -1.06975927444320
H           1.19715489857689    1.06577297033711   -0.44886824482452
O          -0.26544869557212   -2.73235976866024    0.99544967512575
H          -1.17604995350652   -2.54834478066402    0.74098362673223
O           2.03782682469507    0.87231129516457    0.07272813581299
H           2.50734379569535    1.70790592440477    0.10306379195818
O          -2.52722464500123    3.45351089333918    0.17580317993645
H          -2.07632310476927    2.71566317136482    0.63458655246557
H          -3.34923018124213    3.60630389284458    0.64715087388608
O           2.98125648211296   -1.16032349261986   -1.52445054574250
H           3.67018287588844   -1.60048414073617   -1.02448118381751
H           2.69711193822740   -0.38734876573427   -1.00479624611985
O           0.59204947700765   -2.52103552289990   -1.45125389957468
H          -0.09590205471897   -1.83793536763132   -1.50818352369892
H           1.43967934690505   -2.07285071717055   -1.62371850478949
H           0.19037543039186   -2.81089773443667    0.11013215616147
N           0.37109345860623   -0.35450846847118    1.83864374474056
H           0.52399694873599   -0.30746470504870    2.84063632529747
H           1.18077185238471    0.02614306170542    1.31269329091079
H           0.16075451253119   -1.37174114215761    1.51886844674837
H          -0.46488877043308    0.23895504262331    1.54621609327296
