    26
        -50.46282809  Gyration_radius:  2.4862279077 Dipole_moment: 6.972
 S          -1.93958688160763    0.14614134208873    0.79297653077259
O          -1.50700881343651    0.60424688783160    2.10842625601360
O          -1.69951854632293   -1.24914194630808    0.54435705931139
O          -1.38159905666502    1.00725584158786   -0.25336505237603
O          -3.50632144273810    0.36285641632833    0.75808625795760
H          -3.62377005687260    1.16888850084491    1.25040109879163
H           0.03445013214509    1.70704397459004   -0.03505234232123
O           0.93951888402001    2.08510982188485    0.12687511538789
H           0.83191530095285    3.03683201419261    0.15733738414445
O           0.83098758009159   -2.09483685836567    0.87457277127568
H          -0.13881933868614   -2.02523973463305    0.78164964840597
O          -1.08810513365143   -0.87670212851923   -2.15730440633640
H          -1.19227288848887   -0.11548877610961   -1.55865863215416
H          -1.60286536627030   -1.57274003035408   -1.73971530336543
O           1.92354399121989    0.93344524593044   -2.20628137477311
H           1.67919187489204    1.38949414255764   -1.38497166434446
H           1.13532490623321    0.92707152396234   -2.75530373817447
O           1.46066026012265   -1.70319708860841   -1.62869580126421
H           1.17809481636757   -2.03945970221407   -0.05977908180086
H           0.55302524986982   -1.54632035564511   -1.95693600344709
H           1.92558098123168   -0.86910622744431   -1.81509924120545
N           1.06743547431678    0.15745167225293    2.05297262389584
H           0.04165547963408    0.33957836518889    2.24143823627020
H           1.09391125036382   -0.83633377520221    1.56299323612705
H           1.36989053539523    0.89023529709938    1.39262149061574
H           1.61468079819931    0.17291557700501    2.90645493277707
