    26
        -50.46282808  Gyration_radius:  2.48633106056 Dipole_moment: 6.978
 S           1.22799942337760    1.62590225109819   -0.51065701238811
O          -0.10518808943191    2.14492518814857   -0.37104572643762
O           1.54338774830617    1.13404762023685   -1.84709443229471
O           1.54131917045898    0.60501312960920    0.49298559929382
O           2.22515844940075    2.82606897596073   -0.25011181114453
H           3.02401992483634    2.54068605565407   -0.68168227753330
H           1.42018578374384   -0.94017060044799    0.11920194172701
O          -2.10152810958563    0.49264897743692   -1.08722231197810
H          -1.54769606667674    1.26419820164866   -0.85930014781576
O           1.28713033912099   -1.88914585593085   -0.14560702157071
H           2.15156482844554   -2.30135719691595   -0.11216626978522
O          -0.42601542893995    1.19451192371766    2.23731518931195
H           0.34174013117023    0.92885097554314    1.70008340542831
H          -0.69687916102472    2.03418020169267    1.85594396824604
O          -0.47363107410085   -2.31507858775226    1.96497860355472
H          -0.13059789793873   -1.70065226256612    2.61874827320669
H           0.13599607439647   -2.27776727935521    1.21049840920639
O          -2.39053757844335   -0.46759526224181    1.32313178035787
H          -1.82299675752454    0.18423708577935    1.78051265279204
H          -2.34457009564242    0.08836514257399   -0.20736085692599
H          -1.94953830448169   -1.31936386475101    1.48646402963482
N          -0.18424230843331   -0.80051259230873   -2.16842852311496
H          -0.35730908566097   -1.19371176429997   -3.08689628746960
H          -1.09493587779272   -0.33746132581802   -1.73875507274018
H           0.20022679112064   -1.50376872601529   -1.51871401070618
H           0.52693717117930   -0.01705041071874   -2.20482211088132
