    26
        -50.44781389  Gyration_radius:  2.77765854286 Dipole_moment: 3.962
 S          -2.32369268985235    0.04802380753957   -1.98498009916884
O          -1.24733267370485   -0.85324417450174   -2.41740321195326
O          -1.87884749398256    1.41221386013249   -1.83668886763621
O          -2.99302336485851   -0.47569762445966   -0.80451911522486
O          -3.38669643334962    0.02389004411883   -3.15402516928917
H          -3.60979454117760   -0.90082954163697   -3.19133919612001
H          -2.17364094668611   -0.37478663413780    0.53365835851605
O          -1.61286527784022   -0.26465390008229    1.35260860525320
H          -2.22757599259313   -0.23412592183698    2.08702216371399
O           2.39606432248896   -0.80375885219845    2.35209557562931
H           3.24028197348200   -1.25609439807461    2.36844954816676
O          -0.05992880361165    1.51963812915660    0.01006400143625
H          -0.73112560946230    1.69336970655129   -0.69488151975483
H          -0.56175628968021    1.06679319614270    0.71330694450466
O           0.84281512831752   -0.58057450657309   -1.11569036748892
H           0.01374040682535   -0.74966776625430   -1.74178269374942
H           0.62689717406912    0.32962467912961   -0.68885019282311
O           0.47299933919978   -1.94398478328100    0.93672990624062
H           1.17664704841672   -1.61345532458030    1.54838482871472
H          -0.34960114192464   -1.49690276470678    1.21790364760111
H           0.73678864320635   -1.26718960568529   -0.29801124735405
N           2.77349211313400    1.44091610668304    0.89422933594512
H           3.25032994257821    1.27494413755575    0.01616078748262
H           1.83641784249829    1.76474047622890    0.67144146697803
H           2.53702756742692    0.04505964174807    1.85690438889495
H           3.25237973710705    2.19575201309405    1.36921210156025
