    26
        -50.46976721  Gyration_radius:  2.4432077655 Dipole_moment: 2.981
 S          -1.20076034843253   -1.04084340534555    0.96457651546295
O          -1.74213773703259   -0.61944037390436   -0.32934067028737
O          -1.78686381118179   -0.36108175244888    2.08079058126452
O           0.26607428822036   -0.93710935292413    0.93790566908551
O          -1.53290543118994   -2.57216803075855    1.11448721553136
H          -1.11572430037166   -3.01768842065732    0.37160160723040
H           0.62417256577329    0.76984363125215    1.23092645740352
O           1.60426016807153   -0.37607960934699   -2.43168339701758
H           1.18093298069456   -1.24607698585406   -2.32853617672743
O           0.72835617552164    1.72255945099987    1.04830192599923
H          -0.05527575080978    2.13792325070510    1.46443221859345
O           0.04047137463324   -2.36946082589998   -1.28829969292049
H          -0.79803057952453   -1.91793835567195   -1.45619047000258
H           0.37731984947919   -1.94524693125316   -0.47806388969549
O          -1.71435671085974    2.28524610717179    1.96237283661883
H          -1.86793001209560    1.31663039130627    2.00489811412797
H          -1.97840928670411    2.62835819332545    2.81786663952742
O           2.77842385712455   -0.20177528473263   -0.01697900061602
H           2.03906186247776   -0.62660221069118    0.44210220112562
H           2.83337828336912    0.68343213577115    0.35271527369224
H           2.25230263708435   -0.32757661777098   -1.69685128822651
N          -0.19261746945615    1.22767962005575   -1.37682512159619
H           0.25873638081414    1.61222220217499   -0.49700774224064
H           0.53474171719597    0.65947265709717   -1.92055151093286
H          -0.92859399148592    0.55308770457971   -1.03206651252601
H          -0.60462671131941    1.96263281282095   -1.94058180286752
