    26
        -50.44582840  Gyration_radius:  2.56335948373 Dipole_moment: 2.754
 S          -1.86571503367163    0.88582908529673    1.65984304864672
O          -0.98622902238036    2.01633740650500    1.57288444742721
O          -1.25538442459441   -0.36821835889160    1.97095232611096
O          -2.73177971587171    0.79069922154704    0.41719432468990
O          -2.93071603293837    1.19975811462849    2.77427263598859
H          -3.17113601773582    2.10904861531292    2.61877895676653
H          -2.21102828007423    0.28215085016304   -0.39481301943272
O          -0.28645752510199   -2.24056556842682    0.01990501551286
H          -0.92069060750020   -2.35904647486966    0.73216086340725
O           0.74080146220363    0.89582268653497   -2.11212975160193
H           0.88362690227491    1.18428472934189   -3.01413962808747
O           1.47639793113716    1.81637432060317    0.42381786181742
H           0.65834437236025    2.06440117628207    0.88522232072437
H           1.23252611993133    1.70968316370999   -0.50731088147545
O          -1.49079812544748   -0.36698374147888   -1.35920159728971
H          -0.74815939636466    0.20420603015126   -1.66123275658044
H          -1.06007416430941   -1.14405542349878   -0.90379487293100
O           1.44481172983903   -0.68490734363734    1.34731205110035
H           1.60770987449864    0.23330091389707    1.02534006809497
H           0.70161344008223   -0.59088144688429    1.95696133554635
H           0.44316579307293   -1.72441724813050    0.43812645185598
N           2.17162426802150   -1.27584557006175   -1.59107253318083
H           1.54129995090388   -2.06864918967262   -1.63420513761537
H           3.01849735412152   -1.51641736702539   -2.09028715820684
H           1.32659212798832    0.09240925457625   -1.96120870617744
H           2.41115702954490   -1.14431782596853   -0.61337565509207
