    26
        -50.45930869  Gyration_radius:  2.54612711874 Dipole_moment: 6.930
 S           1.53224438914306    0.85747120537880   -0.16599532009705
O           1.28001368646651   -0.43422119979785    0.48197747160490
O           0.95096463239067    1.95740962321581    0.54974892806511
O           1.06783159199953    0.78632765481499   -1.56500699857827
O           3.07653189958504    1.05973841341775   -0.20616263184424
H           3.37144174085469    0.35281356751437   -0.81118126994642
H          -0.49113907304960    0.57577958752332   -1.77689979264913
O          -2.25526618872186   -0.08840414515117    2.12864868013789
H          -3.16193910609523   -0.01569480851930    2.42839807565947
O          -1.46612347156452    0.38289024377815   -1.84785486552812
H          -1.71787665053078    0.61888427147220   -2.74184506155256
O           0.12130625370127   -1.77435849829387    2.68803056700702
H          -0.48700903298209   -1.08319683842829    2.96607944750950
H           0.79297158754594   -1.33516600893648    2.15156862836015
O           3.15228757091971   -0.62627815985109   -2.25604210869605
H           2.26762313151244   -0.20930167599284   -2.18990104285677
H           3.57520567391299   -0.25213965248734   -3.03217064439152
O          -1.70094993468018    1.89833335079775    0.53716327102452
H          -1.81009412007190    1.53130938116758   -0.35160292937918
H          -2.05021664699985    0.75605549122312    1.63777336664215
H          -0.73868900409355    2.06403539950766    0.62706482401879
N          -1.08440326489023   -1.43010114638961    0.13383696799986
H          -0.07549190635133   -1.07440198782586    0.26637966763673
H          -1.08456763819906   -2.44430022195795    0.10800171143663
H          -1.61780815622207   -1.07805941995466    0.96898943728119
H          -1.44684797359009   -0.99542442620044   -0.72899840888640
