    26
        -50.44582842  Gyration_radius:  2.56336693811 Dipole_moment: 2.754
 S          -1.74817486547952   -1.96009701190122    0.35015395442682
O          -0.77270792994986   -2.13012365278105   -0.68015520115115
O          -2.60628273052497   -0.81620093180404    0.23029598696842
O          -1.11578270114551   -2.00674524345830    1.72900565802223
O          -2.66443310527291   -3.23870263177257    0.36996657111898
H          -3.39024075005408   -2.99785696527420    0.93915868662520
H          -0.22802645746856   -1.37591246680003    1.78305749549682
O           0.34629187563968    2.00959250847788    1.28575299706812
H           0.56133441251035    2.69963149636399    1.91410068078611
O           1.89720578476282   -1.07459809539378   -0.59028709263667
H           1.59014433092919   -1.97657294666676   -0.71569321709294
O          -1.65578658101724    1.59142957827258   -0.62122421082458
H          -2.16803393092753    0.81850420291306   -0.33172744494265
H          -1.11792370597300    1.85234841003520    0.14066035649226
O           0.87367458498250   -0.56574371261088    1.76683476751112
H           1.35090649175625   -0.76829889135192    0.91361633566667
H           0.59387750913297    0.37517269741976    1.69344710913749
O           0.03501753447991    0.13987714179148   -2.08560355829913
H           1.30345770712224   -0.54121457171772   -1.17043094059534
H          -0.41244117875845   -0.71158881279659   -1.99829986509518
H          -0.58167393735035    0.77934551000045   -1.65657172067635
N           2.07529994798780    2.01053694449405   -0.72558481273530
H           1.01143166052940    2.07481142958844    0.53427993622685
H           2.60294121454483    2.82806078779813   -1.00401746143452
H           2.72756389054678    1.25194319959564   -0.56192813241346
H           1.49236090901520    1.73240201757274   -1.50880685767329
