    26
        -50.45954254  Gyration_radius:  2.65365489426 Dipole_moment: 3.171
 S          -2.51027802778628    0.42556581333856    0.32867671972683
O          -2.55422529128622   -0.47185692039800   -0.82070962974163
O          -1.91532879807041    1.70394382868124    0.02610917619552
O          -1.88772315709009   -0.22098894698173    1.48280836165120
O          -4.02196042947691    0.69935903041042    0.72917213291983
H          -4.42774310083456   -0.16159484611942    0.68612578864736
H          -0.53382572422127   -1.07280407299767    1.43380324341532
O           1.33899504423172    1.72293362781276   -0.24686531830978
H           1.25736367548340    2.58330826582841   -0.66069221283101
O           0.29231022365938   -1.59611834595668    1.25103509662476
H           0.08467765042875   -2.50238646974610    1.48294047708791
O           2.79265355016418   -0.65845155304885    0.09068543013968
H           2.54459419397166    0.27485895570158    0.02336924228908
H           2.17508149330468   -1.04326421103745    0.72453915873416
O           2.18052821349659   -1.52300184801041   -2.40701435548220
H           2.91883645040424   -1.52955911653598   -3.01570928545638
H           2.54717134994930   -1.30090156098044   -1.52343068374835
O          -0.12608506337243    1.96194113093210    1.91436491043005
H           0.88916671316232    1.81585340680950    0.63621286785118
H          -0.88594290917356    2.04138193111054    1.29621274484299
H          -0.31873014327235    1.16265073793956    2.41284686262115
N           0.02334791401745   -0.45901599227238   -1.20084414276414
H           0.53135679497072   -0.85101762170573   -2.00646458819368
H           0.23630116704106   -1.04983383549818   -0.36872403100192
H           0.39672687741958    0.49161870428093   -0.98386932513914
H          -1.02726866714316   -0.44262010166451   -1.28457865047344
