    26
        -50.45954253  Gyration_radius:  2.65379276112 Dipole_moment: 3.175
 S          -2.55607396964883    0.16556915711168    0.17840889501481
O          -2.22696198125652   -1.23080280797665    0.32516337626456
O          -2.36414675899604    0.65947702976485   -1.18087448257269
O          -1.86245400635745    1.00783159310123    1.15163756970459
O          -4.10727883066860    0.31229188716238    0.48289929345279
H          -4.32325733148109    1.17812106808548    0.14880846106636
H          -0.36098062382221    1.53894876577454    0.99633768486334
O           0.56257173947899    1.81953675551280    0.75531643484531
H           0.53727884244142    2.77527412122657    0.69086935698117
O           0.96269889382737   -1.93220333332290    0.40400124245586
H           0.72141014671762   -2.84704546945952    0.25206096365244
O           2.86195834265217    0.12772441239911    0.18236383185655
H           2.42954139356144   -0.71903057530377    0.36436234702014
H           2.31078785923732    0.79472595817976    0.60962754131713
O           2.54890497069609    0.28505838700707   -2.50797107241716
H           3.29790210696581   -0.03066586493036   -3.01290450011130
H           2.82368076829235    0.27990763878860   -1.56512860635486
O          -0.60965548099224   -1.22393022390267    2.37878441735401
H           0.46653074034936   -1.66585508168760    1.22484459281500
H          -0.65341511567829   -0.28930464490928    2.60022765796864
H          -1.34317476219055   -1.34704893488092    1.73639823946208
N           0.16896805353374    0.05716525602281   -1.27341603884669
H           0.46373307061758    0.82433508327945   -0.63198690153454
H          -0.85787763271604    0.20958408971631   -1.45632599803504
H           0.78074710155611    0.08358121464545   -2.10153684538476
H           0.32856248390511   -0.83324549134224   -0.75196744082875
