    26
        -50.46135317  Gyration_radius:  2.58151771529 Dipole_moment: 4.590
 S          -2.51475627596977    0.27321026462253    0.31723023817266
O          -1.82403934157610   -0.83029488983644    0.99267461575324
O          -2.07604148221309    0.44803723864828   -1.03889205756260
O          -2.44937810773958    1.49355173937146    1.11179403854575
O          -4.04997449625867   -0.13845975876000    0.27943621877831
H          -4.29246971602548   -0.11982640447937    1.20057043939981
H          -1.05609745959870    1.98337655776880    0.62704225492747
O          -0.13412953912209    2.22740747561882    0.32321031674311
H          -0.16475572857816    3.16728880020387    0.13578798185599
O           2.15991847718029   -1.47867823816891    0.80370700338668
H           2.66997826641251   -1.92993349850130    1.47709204085200
O          -0.15701943812952   -1.89801991858123   -0.73205160964520
H           0.61540834165515   -2.05041850195058   -0.16565096329033
H          -0.88517224056806   -1.62350234397823   -0.12888733890710
O           3.13231108715184   -0.16657351041398   -1.34419829152916
H           3.53445192262178   -0.83665250475085   -1.89901600686034
H           2.88149667573837   -0.61813629948102   -0.50889245422265
O           0.46044097068340    0.07185944044602    2.01648941462435
H           0.46394266339791    0.96772274011991    1.65621341321569
H          -0.42087707158284   -0.29214028928369    1.78171959452143
H           1.54731129626923   -0.85943741016415    1.29717665748855
N           0.52809379576039    0.45917019912031   -1.66099923150932
H           0.07940147705467    0.70812026431503   -2.53590454869080
H           1.56640170998099    0.39450074489638   -1.71765311738525
H           0.23536740802797    1.14975868050712   -0.93367319230482
H           0.15018679543642   -0.50193056728354   -1.35432541637958
