    26
        -50.46819122  Gyration_radius:  2.43078706807 Dipole_moment: 3.468
 S          -1.81807284503817    0.74459260942563    0.07224436135754
O          -1.01440709736169    0.99070531361119   -1.12069763007951
O          -1.02758563633427    0.85781393582187    1.28047053487016
O          -2.55281643966115   -0.50090938793256   -0.03264207219432
O          -2.89770218962327    1.89558161041685    0.13753760735059
H          -3.51433193043320    1.61097577940958   -0.52798006866243
H          -1.66326363767004   -1.80949180320373   -0.32003237292997
O           2.28900129151202   -0.59298449205575    0.82721711388706
H           2.19154203662859    0.36292325907335    0.99526658788408
O          -1.04496084656628   -2.57362380103373   -0.45232302313429
H          -1.59918287182370   -3.35120217156354   -0.53315423338556
O           1.58147164986241    1.88027942739113   -1.75443802169487
H           0.61782073265678    1.88953356212285   -1.77857579182458
H           1.80220202710564    2.06948528385869   -0.83469098264561
O           1.37008875933503    1.95366598005883    1.11037598940877
H           1.47333622080623    2.52560386591668    1.87226688614175
H           0.44960930696807    1.60800532809809    1.15149782404827
O           0.07160963132101   -1.53437523914252    1.94547452882779
H          -0.41678773491827   -0.69531240856390    1.87588610572134
H          -0.30425183847672   -2.11239018534489    1.26719878483630
H           1.62472627867994   -1.02661493768126    1.41315644821731
N           0.88272230393095   -0.85478829502591   -1.34074913808760
H           0.36588317629756   -1.74027936960331   -1.25467008662080
H           0.17454305015427   -0.07545338852023   -1.29289020509277
H           1.55868401514077   -0.74731898414265   -0.49488932018402
H           1.40012259750401   -0.77442151139465   -2.21085981601134
