    26
        -50.46689727  Gyration_radius:  2.50052972522 Dipole_moment: 1.908
 S          -1.49870196961513    0.34032465638527    0.84755361144828
O          -1.39277691463120    0.05323150664501   -0.57289035273236
O          -0.99614079748040    1.66414357369980    1.18353225948060
O          -0.90844609236453   -0.68973115046745    1.67440171528022
O          -3.05605231674394    0.35277988842207    1.15194169741011
H          -3.12483044666956    0.65248920439595    2.05362362139918
H           0.00832338666120   -2.17707789001350    1.13498284638183
O           0.69063135140524    2.68124388320859   -0.69169124685931
H          -0.04995894215712    2.35250577174561   -0.15023749995658
O           0.48057413220084   -2.74322861515292    0.49901080978403
H          -0.21023107849422   -2.99626064183538   -0.13860675575895
O          -1.73504593616265   -2.56446180893038   -1.08791085675214
H          -1.68408939689812   -1.59425623781897   -0.98761730212928
H          -2.63150890128529   -2.81049884905481   -0.85682940901656
O           2.11519404828844    1.16777905161354   -2.46443407628932
H           1.71134223719899    1.20100409584665   -3.33260951339422
H           1.63084973907160    1.81626801094457   -1.91422808635498
O           1.43883313229852    0.86211813545675    1.87230342995270
H           1.28770365785414    3.10756349621029   -0.07271506360140
H           0.56312172785970    1.27977550058474    1.74124949063729
H           1.27947096452480    0.14999798392314    2.49735704014389
N           1.24655518457308   -0.43119455552928   -0.49491343003391
H           1.23278501184581   -1.45958317908305   -0.26519146998030
H           0.25312501277824   -0.17765710143721   -0.68518563056907
H           1.53149348984809    0.09404316960320    0.36487870274914
H           1.81777970605718   -0.13131791936456   -1.30577452113339
