    26
        -50.47336956  Gyration_radius:  2.47361002138 Dipole_moment: 1.159
 S          -0.77461813215516   -0.53633277817998    1.07423467801635
O          -1.43503751029483   -0.46580557024103   -0.22426254662528
O          -0.37718809605114    0.78272394134730    1.53463251424900
O           0.35459767678330   -1.46477321049914    1.04158055720336
O          -1.80472112718929   -1.07575735682508    2.11223170046456
H          -1.87646963432517   -2.02801765198682    1.90240193019290
H           0.70929821472425   -1.67598759072738   -0.62347604049011
O          -0.35808229453557    3.25612579078052    0.56927064671593
H          -0.48950683286437    2.44445570010539    1.10077359566374
O           0.71651573511328   -1.69561227046686   -1.59983666031637
H          -0.21369540462394   -1.71520869810860   -1.83957911087952
O          -1.22439825589540   -3.53839169960064    1.34917261085051
H          -0.45836298994405   -2.96967860871107    1.13214412366438
H          -0.92155691923047   -4.17078845661150    2.00458502740914
O           1.68424624500024    0.77012574295721   -2.00204323934469
H           1.47375285312032   -0.18910505175322   -2.03921522144470
H           2.03887127499762    0.90109831276763   -1.09688671248373
O           2.14055600814850    0.81300287728693    0.65415984952203
H           2.46802684285403   -0.06468123936623    0.86496517535520
H           0.55687190922171    3.50904937294617    0.71510785245164
H           1.24800449707922    0.84190506624233    1.05128767082689
N          -0.70987822601288    1.67272639941709   -1.56021293425363
H           0.28503892039485    1.38183892524586   -1.86845395958804
H          -1.29208764214877    1.94584423256927   -2.34368142777293
H          -1.11193663279618    0.83047168915651   -1.05917206115639
H          -0.62824049938185    2.44077211225876   -0.84972801822881
