    26
        -50.46369352  Gyration_radius:  2.50160260137 Dipole_moment: 5.124
 S           0.25477672690428   -1.06311511179122    1.99993308196786
O          -1.11673538289847   -0.90889614852938    1.57213671121495
O           0.99037195187706    0.20301392154102    1.97178909944795
O           0.97919103473288   -2.10059079603634    1.28710706706384
O           0.20755367631054   -1.51236926710788    3.51502162774969
H           1.09850102009670   -1.80741528971956    3.67208182848670
H           0.98941624020145   -1.92049615500436   -0.29696853873323
O          -1.19110883972927    1.81546651687037   -0.88240159995997
H          -1.40577721342164    1.99987788797667    0.05834630292838
O           0.99317501478886   -1.69281264914102   -1.26456724396037
H           1.49058243569275   -2.38379645844565   -1.70413669242866
O          -1.34979816854356    1.74080008391217    1.78938664210687
H          -1.48601026242522    0.77455495689565    1.78961785542492
H          -0.47208551010514    1.84735951568934    2.16813536179581
O           0.26046623071112    0.86589507557583   -3.19734802233195
H          -0.34899053371733    1.53753385167029   -2.87507085579038
H          -0.26851619644796    0.07731643889005   -3.33511585393914
O          -1.64580352045465   -0.80528165812140   -1.08727081324737
H          -0.81506028689203   -1.22151214759867   -1.36014644894203
H          -1.68013259169360   -0.94741350043716   -0.12522419505490
H          -1.56094850728021    0.91598791061951   -1.04533878619637
N           1.24280035572547    0.92743461625569   -0.53241198090154
H           2.01309144293084    1.53390527020560   -0.79170617373413
H           1.25041919937277    0.68161091280833    0.49706830583640
H           0.29339227795902    1.39682596542447   -0.74549472325998
H           1.27722940630849    0.04611623759382   -1.07742197555191
