    26
        -50.47336958  Gyration_radius:  2.47362267756 Dipole_moment: 1.161
 S          -1.10690989975513   -0.50833233174486   -0.74623362332971
O           0.19949197609307   -0.60041202786647   -1.38808487151729
O          -1.45911957317350    0.87263686258482   -0.46575257361478
O          -1.16365500597227   -1.33949338705229    0.45555575022695
O          -2.17613075631762   -1.04359483794158   -1.74616086054272
H          -2.04630479129136   -2.01261292805874   -1.73603073161550
H           0.47402579466177   -1.65742631045075    0.85468767636082
O          -0.29099947874602    3.25128132452334   -0.63412164079285
H          -0.88693346444738    2.47791519481950   -0.70714383697855
O           1.44520911982628   -1.75686089250931    0.88034087008857
H           1.69220774921737   -1.87330402634488   -0.04083528801704
O          -1.62840020784823   -3.50431346800457   -0.95326190317643
H          -2.33733562416785   -4.05313882630811   -0.61062093911424
H          -1.37205802192993   -2.89388637564908   -0.23281678299874
O           2.04140039468127    0.73929571001120    1.64944870716121
H           2.00054572788022   -0.23391173656449    1.51882284456766
H           1.14659994473918    0.97322063125910    1.97652319213913
O          -0.60603417260065    1.03914295243414    2.05583565285793
H          -0.98995440388025    1.02670532438883    1.15710670467335
H          -0.89269326362585    0.21184833139396    2.45003927905925
H          -0.42490668714382    3.59127096213154    0.25406074906632
N           1.70194602281607    1.47356481406939   -0.81774450651499
H           1.05766780123344    2.30191821909020   -0.81187410666768
H           2.51171807663389    1.63152101779815   -1.40658081808019
H           1.97415771707026    1.24192799193320    0.20290577850789
H           1.13646503604362    0.64503781205051   -1.15806473173882
