    26
        -50.45792473  Gyration_radius:  2.59210870978 Dipole_moment: 3.554
 S          -0.11479408227996    0.36864916403782    2.21822929141365
O           0.44333201421630   -0.63316405589846    1.32950829253424
O          -1.11227498666524    1.18416552322053    1.53049509807591
O           0.86641399258373    1.15186815398714    2.93198410825325
O          -0.91213885043944   -0.45771899687300    3.32538380052022
H          -1.03845774254766    0.18644564263935    4.01512034697224
H           1.71876503531542    1.61201724376497    1.60998850155855
O           1.14941635622561    1.70636391597200   -1.62006062040650
H           1.27287493951670    2.57130479546788   -2.01284231460500
O          -0.45721555794088   -2.25532099065703   -0.63588751229177
H          -0.31572432795396   -2.05614576556711    0.30454734266676
O          -2.84415527002347   -1.48456694454895   -2.03543935191445
H          -3.54682341536411   -2.08679171610521   -2.28151119245123
H          -2.15052613801445   -2.02185373092693   -1.62720065408816
O           2.23793324298268    1.72201117195939    0.78162803399728
H           2.93689324586353    1.06495610305338    0.82959456154084
H           1.52582061515245    1.76641788770772   -0.70520313504943
O           1.94569601174264   -1.02543041173969   -0.94309661221365
H           1.88017511187379   -0.19417892954942   -1.42487000952320
H           1.62097272262775   -0.83947354889474   -0.04580772061194
H           0.43854506348062   -2.18887993047533   -1.01534652441363
N          -1.12237447591032    0.39455364366246   -0.92594624485657
H          -0.83715829580789   -0.61003162989120   -0.86415551285250
H          -1.22224047329915    0.75137064806234    0.07776644792308
H          -0.36340995117689    0.94322590712013   -1.37442292905733
H          -1.99954479426800    0.43020684050358   -1.44245548105599
