    26
        -50.47336961  Gyration_radius:  2.47372162426 Dipole_moment: 1.162
 S           0.03575410890960    0.63428257141007   -1.27935657095517
O          -1.35392341632869    0.25159627803792   -1.09985738053919
O           0.92544254330491   -0.50757656292039   -1.10137645181103
O           0.41414724795918    1.73946510279714   -0.39972033992626
O           0.17213945547576    1.12922192763670   -2.75109441399018
H           1.03932478329704    1.58048445383952   -2.77016899131269
H           1.41399293826392    1.03071828333604    0.80054207519317
O          -2.69500574521366   -1.91550523090781   -0.35434071929778
H          -2.33870325961164   -1.13240798867654   -0.82160128207877
O           1.98266443013112    0.45429469859225    1.34652217687806
H           2.42143847314057   -0.11336114012928    0.70741289115710
O           2.30435515422432    2.52091027545163   -2.04409119896085
H           1.75900892538296    2.38185673154788   -1.24369549876179
H           2.31885312514060    3.46660859185494   -2.20722101628012
O           0.03440038989167   -0.92244294910930    2.56603846908015
H           0.85141601495763   -0.42689425782606    2.33634654735318
H          -0.69010028266157   -0.29124125825898    2.36856995974872
O          -1.65180310542634    0.87579542329194    1.47622933928219
H          -3.25343417884926   -1.56245426494476    0.34269805046845
H          -1.20375955996590    1.72081476316273    1.56074284494516
H          -1.62492623111734    0.68055634995121    0.51893951716119
N          -0.16695128453626   -2.35391624213326    0.40914227443987
H           0.25075903374029   -3.27706732831092    0.38278251071264
H           0.31344485527483   -1.69642941135724   -0.26836919356161
H          -1.18195690358748   -2.37851020157740    0.14373645001892
H          -0.07657751178959   -1.88879861474345    1.38118993101318
