    26
        -50.45601082  Gyration_radius:  2.60928310036 Dipole_moment: 4.598
 S          -1.54181863518004   -0.28161228291976    1.39395947610701
O          -1.98115186481144    1.00619090058031    0.86322963423773
O          -0.15856848644876   -0.26105929406812    1.81268534817120
O          -1.82574211717845   -1.36318442359644    0.46190207511748
O          -2.41201834170112   -0.55091598910533    2.68513184405589
H          -3.29942887641619   -0.47955019171282    2.34814541923632
H          -1.18921155807125   -1.02167944349048   -1.04618477809318
O           2.06415659033918    0.96049883324494    0.76829071799692
H           1.50277747484808    0.79628035265774    1.54134017404423
O          -0.63268434338224   -0.88231009233418   -1.84678622046367
H          -0.68756804416573   -1.71995604619575   -2.31964061371811
O          -0.64251197419348   -3.55648093933207   -0.86801176823879
H           0.23020953056220   -3.52546345328550   -0.46495224628356
H          -1.21135781446237   -3.01567754181384   -0.30277375248561
O           1.92726260899113    3.45566325500993   -0.71590450026796
H           2.28737185423178    2.77973914755137   -0.12672009214454
H           2.52941499376234    4.19971288635847   -0.68212504960746
O           1.41054338614758   -1.51808200264370   -0.00935243651136
H           0.86982443889392   -1.39748707724056   -0.80624516259726
H           2.22682742063295    0.05809395822034    0.42098105690741
H           0.81334759417773   -1.31928822040991    0.73391302189102
N          -0.06164007905812    1.54177079151376   -0.79017459668997
H           0.06613663108876    2.47886512538363   -1.17144862139585
H          -0.18630305826249    0.83054232979266   -1.52400623875674
H           0.80044480214100    1.31734338760967   -0.22332002211559
H          -0.89831211056571    1.46804601970600   -0.13193268802183
