    26
        -50.46364225  Gyration_radius:  2.49477158833 Dipole_moment: 3.028
 S          -2.12353052373627    0.23435175183765    0.08708478220968
O          -2.15111433483708   -0.87093836335581   -0.84738159937412
O          -0.96848178394365    1.10152678211410   -0.14072086151472
O          -2.23308357991200   -0.19426727991094    1.46744255573798
O          -3.38364787041130    1.13921219532564   -0.21772805033558
H          -4.10123053335108    0.53079322538968   -0.07793586725555
H          -0.97979198188222   -1.10068763613885    1.85614482938389
O           2.84371591110196    0.77401638518443   -0.12037320727588
H           3.64286710398956    0.38677168062319    0.23753405588304
O          -0.14902378494789   -1.61679251696160    2.03294226000756
H          -0.31275602891290   -2.10833342337272    2.83971045138296
O          -0.11450282959142   -2.53965349951816   -0.55324359891462
H          -0.99907334020788   -2.15289999118640   -0.72308099167911
H           0.01772756953211   -2.42308964251910    0.40406529958113
O           0.91997613216473    2.50473412134755   -1.78255242819757
H           0.14446221505676    2.40195797806228   -1.21949247825430
H           1.68366082865335    2.45872017800545   -1.20051599486920
O           0.98281597565897    0.89347046017090    1.71875299722320
H           0.21491219581624    1.15070185352327    1.17706669297176
H           0.77691440477572   -0.00804917066529    2.01369605944604
H           2.21929715358968    0.89517076108151    0.64578860867433
N           0.82990432475992   -0.30364762090015   -1.54135095928915
H           1.73236522444277    0.03379088247797   -1.13200948734982
H           0.60823099119558   -1.30602772993414   -1.25662660599642
H           0.07186464079857    0.28892618216116   -1.11959728762846
H           0.82752192014555   -0.16975756282226   -2.54761920456346
