    26
        -50.46797307  Gyration_radius:  2.47288085041 Dipole_moment: 6.430
 S          -0.02447475562150    0.77485792050402   -0.82558195069672
O          -0.10420569574315    2.01505037607568   -1.74091443886759
O          -0.73363687258640   -0.30340819516408   -1.52725888170220
O           1.36939534007523    0.43811744662374   -0.60449308723233
O          -0.72020360938687    1.07901868555925    0.42513569306236
O           0.44169865296761    3.20658514224600    1.49209816173865
H          -0.01244011996337    2.39305943587510    1.18417191516991
H          -0.24261289160735    3.86702973230045    1.61152651581789
O           0.33420383840318   -2.74937643073448   -1.38431885973353
H           0.06822207512881   -1.82373480165009   -1.56939200741942
H           1.03348645153835   -2.95393262669113   -2.00674460367212
O          -0.95201637680655   -0.97211310618248    2.07571353298636
H          -1.66490075984875   -1.62976883711450    0.99176602986876
H          -0.92000521371448   -0.07598245115883    1.67523175918951
O           1.32836940990772   -1.70083961514123    1.00175571221659
H          -0.03365992498603   -1.31595937562857    1.92861950890287
H           1.10435913918697   -2.33541687394993    0.30391058660713
H           1.50565411762901   -0.86950023174368    0.51975581929267
O           1.98404094464742    3.04969380134022   -0.69538681666392
H           1.60309656885617    3.30633441800203    0.17040000791161
H           2.26947247283701    2.13017864792399   -0.58251805603749
H           0.69155715870413    2.55877078600876   -1.45635365930490
N          -2.03547262939646   -1.97063241750843   -0.00296136997875
H          -3.04404941149699   -2.06515634528014   -0.04321950985029
H          -1.56550386382880   -2.83440677076494   -0.27451634418700
H          -1.68037404489881   -1.21846831376065   -0.66642564741803
