    26
        -50.47304702  Gyration_radius:  2.48606842372 Dipole_moment: 2.159
 S          -1.05155062898814   -0.05717460947749    1.84281423221384
O          -1.05681410840114    0.98663198854436    0.83558510162796
O           0.29931076923503   -0.48928275340432    2.18233445204153
O          -1.92104184048485   -1.17312334832465    1.53139229362679
O          -1.64273297456063    0.61206899262757    3.15321864169613
H          -1.82525317294224   -0.14276491872254    3.70273685028095
H          -1.63851203079157   -1.84115383631430    0.09883942972299
O           0.52437657739712    1.38972664277595   -2.80220862737778
H           0.33802541123226    2.32751989702304   -2.86745819485771
O          -1.36125642474890   -2.20554753466276   -0.78112626281710
H          -1.83393937402698   -3.03242796669359   -0.88877313522392
O           1.20419984040250   -1.74672328298911    0.02661148194396
H           0.92754891407242   -1.40827223875042    0.90477743236401
H           0.37948044434153   -2.02942705134262   -0.40771717428478
O           1.38262627619599    1.78181363109593    1.34772434092110
H           1.35347591563900    1.00236921225988    1.92945774383280
H           0.44053826264923    1.86449643086727    1.10348240785279
O          -1.62546205627134    0.38612089739378   -1.71827447377230
H          -1.60630906201355   -0.58029148791563   -1.64740895596122
H          -1.53796557707224    0.70144500255180   -0.79813277585307
H          -0.32615312039767    0.97191916433955   -2.48727931838117
N           2.13794454533325    0.54281809186299   -0.86652957193523
H           3.12432974291315    0.54223486181725   -1.10044181330667
H           1.94497743094985    1.14025024515806   -0.00857077161744
H           1.55845889238121    0.89744707677335   -1.67523442100883
H           1.81169733795346   -0.44067311648353   -0.60981892173653
