    26
        -50.45676861  Gyration_radius:  2.50418510424 Dipole_moment: 5.752
 S          -0.59631096649669    0.84928098837505   -1.85610877072811
O          -0.25718924215661   -0.43972296368161   -2.39075320553875
O           0.39567473706113    1.32601168847529   -0.88513462428582
O          -1.93295066923060    0.93211185225491   -1.28114492044284
O          -0.57582766547800    1.88174404047582   -3.05142914648757
H          -1.04217172431217    2.61853056316297   -2.67199643476049
H          -2.35794073976113    0.04193831686169   -0.03994298777024
O           2.04534772480582   -0.86288283481132    1.72339045801470
H           2.24377796564663   -1.67047452046911    2.19889437796934
O          -2.51188016340694   -0.49411726043421    0.78632107327935
H          -3.46010952421454   -0.50669595463753    0.92342575326348
O           2.12908963180456    2.11658903321449    1.24614610812196
H           1.79004864015501    2.06593607874622    0.34475827025050
H           2.59078325429976    1.28630128328793    1.39707497500776
O          -0.98961163590812   -2.42493998830346   -0.63991546426578
H          -0.91769634298014   -1.86207910300404   -1.42836446854650
H          -1.59510919009777   -1.96336093399521   -0.04556184813406
O           1.61482533877047   -1.62230700803414   -0.72524214977925
H           1.29514951186907   -0.98380893217527   -1.37988677629436
H           1.99435410288087   -1.11845893117075    0.75913894047123
H           0.85170068228987   -2.21816319425505   -0.61008160164754
N          -0.16534773993428    0.60469743211819    1.55510581840242
H           0.02682735916563    0.93410380303879    0.55495387789409
H          -1.08875152053136    0.13950836547856    1.56642920409453
H           0.62979393096000   -0.04602612894732    1.78447441006391
H          -0.11647573513515    1.41628427832919    2.16544914188510
