    26
        -50.46392510  Gyration_radius:  2.61077855355 Dipole_moment: 2.912
 S           1.00448966750314    0.26821954346297    2.12652996697004
O          -0.37612317480096    0.73579495668305    2.11657974008983
O           1.72072454951104    0.63249870946334    0.92045685687841
O           1.08759289883498   -1.14945776437526    2.42949570682591
O           1.72291539471161    1.03549346347787    3.31043906791246
H           1.18836065880980    0.79060834616859    4.05863885217777
H           0.48309704628468   -2.08137432174623    1.28941312003322
O          -0.19484917304575    0.60592879429944   -2.15601973583514
H           0.55561166282167   -0.02637138695071   -2.07253908105033
O           0.04784097470279   -2.58492018739303    0.54940239133270
H          -0.01678548531489   -3.49258022173285    0.84986343280880
O          -3.04509994939784    0.26854529506284   -2.17141631896568
H          -2.14110705106497    0.43455953424697   -2.47489344265773
H          -3.62632291377189    0.70171552126221   -2.79712840521301
O           1.65945250368891   -1.05059620854906   -1.21000925432513
H           1.87725911814805   -0.46058802230967   -0.46584311359363
H           1.21547259377878   -1.80692936937829   -0.80464034243323
O           0.87908788054095    2.56101118362772   -0.68817169197595
H           1.67363149844064    3.02843068077836   -0.95076198751589
H           0.14669409552471    1.44621885381475   -1.77891215573767
H           1.16269528677442    1.91633660603852   -0.00393909540285
N          -1.42511828455550   -0.36022532944827   -0.00488969995507
H          -1.11240509400144   -1.33921048376336    0.10869528818829
H          -0.93675639595154    0.05437130546949   -0.85613089702239
H          -2.42648191097777   -0.29709664361125   -0.18472836885070
H          -1.12387640752807    0.16961713529205    0.86050918772499
