    26
        -50.47418036  Gyration_radius:  2.40981106984 Dipole_moment: 3.497
 S          -0.01813974139218    0.37794737784077    1.92024109842024
O          -1.35298757178227    0.59502472707610    1.38043408328303
O           0.96425701676507    1.31182105089158    1.41217461036046
O           0.39358178808240   -1.01147991291663    1.78912539948503
O          -0.12594536921439    0.66576142359487    3.47277623674379
H          -0.84580657055373    0.10195686153198    3.73378719190996
H           0.03283230674407   -1.89289582014341    0.49425405287252
O          -0.61738667177868    2.68665923429656   -0.14551921657282
H          -1.31838221339458    2.24027434190253    0.35312989426290
O          -0.17999176275496   -2.41992549623461   -0.31895055488074
H          -0.09720715969508   -3.34121353680263   -0.06924347776138
O          -2.22452266964687   -0.66676368286738   -0.80378887221056
H          -2.07005372382545   -0.21583740231319    0.05228491303680
H          -1.68706403610807   -1.47479274498322   -0.74958770052586
O           1.41348606334857   -0.78419723952748   -1.87424831313424
H           0.89433828397931   -1.51954829585033   -1.50730585496766
H           2.04826391815914   -0.55400025006365   -1.15640698574157
O           2.75648041197121   -0.34676251491789    0.38727566898209
H           0.17458420455292    2.44845969962404    0.37516061890284
H           2.24901651948917    0.40083041534109    0.75670779093001
H           2.49507926938362   -1.09224179442243    0.93594942019346
N          -0.57420585781617    0.91431940867212   -2.11586495704720
H          -0.50816036331773    1.72638688210308   -1.43802098636338
H          -1.35056750274190    0.28926786281773   -1.74292781436874
H          -0.76801086218693    1.23496590985084   -3.05754373357519
H           0.31651226373734    0.32598351546796   -2.08389253223966
