    26
        -50.44653590  Gyration_radius:  2.46345706711 Dipole_moment: 3.735
 S          -1.82280801101941   -0.60367224158867   -0.26440321356369
O          -1.79340409031054    0.61574531889406    0.51074319029126
O          -0.53275357649330   -1.13062171336427   -0.57957631169610
O          -2.63479452428125   -0.36744960258127   -1.55496065516752
O          -2.67747905736851   -1.65818515120085    0.46039255848572
H          -2.23411447968097   -1.72988946452844    1.36186626437101
H          -2.19932101986264    0.43581087624861   -1.96567014494690
O           1.42302240407589    1.53444198876607   -1.64906600026560
H           2.03273056410959    1.96697024562798   -2.24861937979719
O           1.33581399177318   -0.92529455478455    2.13515887214826
H           1.74950526419893   -0.72604273745970    2.97754822581811
O          -1.28204263184390   -1.30522492983337    2.57297430317282
H          -1.49530524222517   -0.36709978640647    2.60147580699324
H          -0.31488186069775   -1.34749669340733    2.37120430026021
O          -1.25089251088440    1.74790121848625   -2.03736609673966
H          -1.48930290569726    2.13169538175294   -1.18760628514699
H          -0.27865356273130    1.61187002216940   -1.99784389170468
O           0.72097737547825    1.42825781303113    1.06327350403448
H           1.08489380475382    1.58741401290056    0.17975802827345
H          -0.21740670377944    1.21625445269013    0.91557601628545
H           1.19291223585636   -0.05483976928601    1.68817183422053
N           2.24707940851220   -0.90554560171479   -1.06788369647507
H           2.64839171561941   -1.57756152457455   -1.70989003094337
H           2.73645489616272   -0.98945780916043   -0.18480039801571
H           1.76662427124200    0.60129503000373   -1.50383812552957
H           1.28475423509747   -1.18927478067808   -0.88661865435294
