    26
        -50.44963615  Gyration_radius:  2.51692874664 Dipole_moment: 2.274
 S          -2.41284880317326   -0.00873645511891   -0.09266440984975
O          -2.06844469818173    0.29441345934250   -1.45354077200510
O          -1.94377732985555    1.01424958906245    0.85278161109158
O          -1.98592653732296   -1.32795540364806    0.35473896814805
O          -3.99160136366429    0.00326665008586    0.00854380976748
H          -4.14416304945903   -0.26545057914414    0.90857106710390
H          -0.82489200488431   -1.07016932032182    1.54150321668166
O           0.50941448835831    0.55725619378112   -1.94900370768673
H          -0.44251765367639    0.56229546287470   -2.16309786542085
O          -0.16671447322053   -0.82501483328999    2.22726494095531
H          -0.63803001719673   -0.23478733439404    2.81935019270481
O           0.18285376738710    2.04872511718081    0.06200905665820
H          -0.74544631082998    1.71580983694781    0.39561717420124
H           0.35546085298943    1.51460104757951   -0.82185951512611
O           3.15150695934011    0.27621818125752   -0.77606069581136
H           3.86862675382905    0.87353117303028   -0.99430950658086
H           2.45948413375193    0.41100321645455   -1.43595102026912
O           1.79979541943131    0.82691816345547    1.52294670389694
H           2.39150643372981    0.46034055292854    0.83827673503346
H           0.88563695382471    1.64805361669800    0.74797471857579
H           1.19833880356149    0.10524312346762    1.82202209849899
N           0.55330364766812   -1.81679855259810   -0.83974771846083
H           0.63911497023479   -2.60039093946953   -1.47397430218664
H          -0.40843604531353   -1.79823126977951   -0.49721476804112
H           1.15670702544572   -1.99501811447054   -0.04642381603412
H           0.62104806719422   -0.36937257187603   -1.55775219581206
