    26
        -50.46664454  Gyration_radius:  2.50071968282 Dipole_moment: 4.338
 S          -1.76856340076425   -0.57004115684982   -1.20189592156546
O          -0.92258285916305   -1.38345001512914   -0.33513024578112
O          -1.08716656397757    0.68144124229220   -1.53870027480849
O          -3.11475303407952   -0.41347119000851   -0.72915348734785
O          -1.86336339217569   -1.35967567208240   -2.58203193741028
H          -2.68918390225151   -1.82582932200133   -2.50042370921237
H          -3.01765151324979    1.13293874582566    0.44038837116031
O          -2.32160104296722    1.78285813617470    0.61490655676002
H          -1.83080654772662    1.79242641010954   -0.21995361429774
O           1.57957466222508    1.67727876142573    1.14936468936587
H           1.32912828075583    2.59030396940729    1.29600527572531
O           1.67482848513278   -1.97135589900376   -0.46977133102433
H           0.70017751829649   -2.03570107277386   -0.45658843722500
H           1.93038828573009   -1.86409455774879    0.47086523466962
O           2.03093063616573   -1.12050884209736    2.08108681408504
H           1.10773486645193   -0.96437219189142    2.31571222230942
H           2.43457050528447   -0.24890115734588    2.02955674573308
O          -0.49635555055764    0.19068847149537    1.74896261411333
H          -1.22240891874465    0.83538230897335    1.61245319788242
H          -0.65169000788171   -0.48072523206085    1.05082288288294
H           0.79404165780443    1.13043744611312    1.43541429246229
N           1.50344349249839    0.49967302520635   -1.26355182849969
H           1.69391745158056   -0.53606107955713   -1.02245485571231
H           1.68602308124478    1.06692571683155   -0.40344996788049
H           2.05698139821487    0.81563627210796   -2.05144617972047
H           0.46438642198608    0.57819688257766   -1.47098710666561
