    26
        -50.46109598  Gyration_radius:  2.57336558738 Dipole_moment: 2.860
 S          -1.06313118386489    1.88632327016514   -0.30165083760500
O          -0.74913613583746    0.98606588223641   -1.39314162018974
O           0.12038263222317    2.52896737380005    0.25808155360750
O          -1.86568745312414    1.26168139904801    0.73466750962778
O          -1.94909393798351    3.03913681021667   -0.93064190811307
H          -2.14231279365775    3.59090680601016   -0.17927991584106
H          -1.26753270150607    0.05773970106807    1.59717531504163
O           1.17168092751372   -0.90543175498448   -1.21224909888092
H           0.56316263397185   -0.22932488110302   -1.56167159940042
O          -0.80241189961005   -0.64183175489016    2.13001851047224
H          -1.36944864825672   -0.81591283518882    2.88251408159803
O          -2.49291025882642   -1.03199500769482   -1.48936061738805
H          -1.95102424049248   -0.22069776014665   -1.41330776590031
H          -2.64487550923041   -1.16401775071382   -2.42655935895479
O           3.78912907989467   -0.61298399476682   -0.03306924805396
H           3.10680766741650   -0.85761168384709   -0.67323760796883
H           4.62147721622201   -0.92353305494159   -0.39045474613193
O          -0.64504926806797   -2.40658006763434   -0.05468559943196
H          -0.71151050275884   -1.95802080160770    0.80251449057323
H          -1.41672733734937   -2.08808047662896   -0.56307062411149
H           0.57305957600591   -1.62389754201849   -0.87202204081351
N           1.44194006677808    0.43371996201837    1.04908797068796
H           1.02941303545549    1.37888942552727    0.80137543221111
H           2.41705800231173    0.48254628608643    1.33784210916816
H           0.83397377036212   -0.01856123497718    1.74812913312858
H           1.40276725234713   -0.14749630521817    0.15299646251249
