    26
        -50.45960413  Gyration_radius:  2.54560421654 Dipole_moment: 5.063
 S          -0.64795829363513   -1.03560840498469    1.87808599020311
O           0.43519321955863   -0.08226977913618    1.73716071010905
O          -0.38430181195098   -2.27758444506312    1.16986160644630
O          -1.95182871119639   -0.48948781516649    1.54368089145231
O          -0.70960878682481   -1.38420546251030    3.42903835913977
H          -1.57513699801020   -1.76598002698614    3.53880397631352
H          -1.78594235381023   -0.48140546831999   -0.00097363993294
O           1.42332630664314    1.67920142502891   -2.20557174963566
H           1.45131816158942    2.09147941422812   -3.06959682492840
O          -1.66867581089991   -0.53844348073774   -0.99214429309140
H          -2.31691421100898   -1.18451340073932   -1.27912685309990
O          -0.25117890291636    2.45750760520461    1.41693550619713
H          -0.08140458587634    1.50861998844553    1.59833802611647
H           0.57235449830884    2.91084294763151    1.60598861518682
O           2.05873724563147   -1.78339904400992    0.49267460905112
H           1.22346096885535   -2.23195955085390    0.76747653451055
H           2.04005152753361   -0.99171356083578    1.05047963644806
O          -0.90278952787878    2.20218590076395   -1.16911069584109
H           0.56337855860529    1.97688498170372   -1.78614738808095
H          -1.37132798743993    1.35725361438775   -1.16150500847620
H          -0.75210081468086    2.41541143957299   -0.22159367413811
N           0.93151518748892   -0.87845935580889   -1.68866642724570
H           1.48602081469783   -1.24114884482957   -0.83947493507558
H           1.04556759689454   -1.50771994860026   -2.47591631266464
H          -0.07513899251081   -0.82488836133800   -1.40283108570011
H           1.24338370277877    0.09939962260782   -1.93586558291233
