    26
        -50.46575192  Gyration_radius:  2.54831525175 Dipole_moment: 4.201
 S          -0.87644133350494    1.32024618047279   -0.24703498719307
O          -1.46531570395811    0.69158782009267    0.91228877561608
O          -0.87153932283605    0.42424745335718   -1.40046497466014
O           0.48000349047247    1.81949135568035    0.01714470446369
O          -1.75993583242036    2.55544507623005   -0.60797214329723
H          -1.22896448469425    3.00181864586361   -1.29435078101475
H           1.52079915225674    0.66401978700646    0.40279402252785
O          -1.85929496590206   -1.93055230819457    1.64932913842844
H          -2.20267467602170   -1.03711390922019    1.49310369814439
O           2.16165788104382   -0.04441399539172    0.67359891030003
H           2.96825355435519    0.40884638196812    0.92476047408161
O           1.83775077540137   -2.18818969757552   -0.92431536150624
H           2.08926253898647   -1.83914759957061   -1.78175954721521
H           2.03008766347782   -1.47613486530245   -0.27984697763748
O           0.30605516036299    3.51333599535506   -1.96795613181672
H           0.58965565395763    4.38317041829159   -1.67731482821131
H           0.62040953682108    2.87742864722218   -1.29201010349032
O           0.23630275899599   -0.58416200573347    2.64556514708823
H          -0.32646364473826    0.08367028844157    2.21853330219212
H          -1.08321888147178   -1.75961044723930    2.22241291806920
H           1.05288862285027   -0.58408606094014    2.12790125604029
N          -0.84952258390340   -2.08760903456429   -0.77097385447082
H          -1.36501650218659   -2.68523179766075   -1.40764499686005
H          -0.92882615790152   -1.06251480636403   -1.07000668314302
H          -1.24773507089801   -2.15107456676042    0.21976328081513
H           0.17182234144811   -2.31346695546303   -0.78554424724598
