    26
        -50.47250216  Gyration_radius:  2.48728556622 Dipole_moment: 2.862
 S          -1.80268321912515    0.11425216585343    1.37157388849685
O          -2.53870721359209   -0.24538637419737    0.16586260818800
O          -0.74624300163336    1.06931403027585    1.09673213305843
O          -1.35030743006026   -1.05421503711304    2.10239030350398
O          -2.83051928352097    0.85544746216216    2.32238868957068
H          -3.38149459262508    0.13040393914983    2.59648727539265
H          -0.14681934118209   -1.80337612762992    1.37398453009904
O           0.14060253252120    2.31795997734974   -1.12658496564687
H          -0.19725320105934    2.12811672509160   -0.23186053914304
O           0.64275916506963   -2.22064090947090    0.93972371423351
H           0.64489462343476   -3.13674557982718    1.22100512873724
O           1.02456609782126   -1.37253862751730   -1.63020532767825
H           1.66724949607362   -0.65294906765088   -1.49604916575290
H           0.90034685567255   -1.77375837868656   -0.74922473341316
O           2.46419973314998    0.85582338802955   -0.88730216149846
H           2.26516094581945    0.66468029655861    0.07513563742298
H           3.37967078603865    1.13323660230877   -0.92446077935465
O           1.75836445723793    0.25731302956881    1.54758827293836
H           1.61608714986162   -0.70002943743249    1.51524023089781
H           1.05277691539735    1.97416955327015   -1.12590998595818
H           0.85695422936361    0.63782708038042    1.54354923451576
N          -1.09921478816239    0.15970917376642   -1.96950469247861
H          -0.30678001149877   -0.54703062179789   -1.93732078649550
H          -1.74594733238293   -0.02820114100428   -1.14945814700559
H          -0.66378894008856    1.11575399472023   -1.79641220640211
H          -1.60387462252750    0.12086387384216   -2.84736814622495
