    26
        -50.45346853  Gyration_radius:  2.74453337758 Dipole_moment: 6.036
 S          -2.19427052246393    1.97122949944905   -0.16030264777768
O          -3.35489565676752    1.15715911704317    0.03807527891154
O          -1.59619079201595    1.85035273254685   -1.49440369187863
O          -1.16312246391984    1.74890035017507    0.86499656788445
O          -2.62994820891395    3.49177282455286   -0.02741378037675
H          -1.86717690535835    3.97819902251301   -0.32816235638065
H          -1.56167508807643    0.14937284870343    1.23988245837957
O           1.32971441700721    0.79712981729534    0.70718272337500
H           0.53839434479493    1.34607330907727    0.87771069894253
O          -1.79973459568547   -0.79486183766745    1.09601447006638
H          -2.74488431478584   -0.74334387151033    0.91470352810532
O           1.50129167912932   -2.45835452894333   -0.85464773778332
H           2.19774168391827   -1.76888849239445   -0.90934287882887
H           1.94357292869035   -3.30028950485580   -0.96674839720759
O           3.26230903134544   -0.40492784101768   -0.79344705635032
H           4.08364950644191   -0.47694302065039   -0.30466818061069
H           2.71051701294338    0.22865860534150   -0.30203371259520
O           0.81580735271429   -1.61675297786519    1.73568898381636
H          -0.14493344300270   -1.55790325126343    1.81102082692448
H           0.99153898728141   -2.08475276682250    0.90201110605448
H           1.24354120781565    0.02198741324921    1.30960156362825
N          -0.30731872830221   -0.33192499504204   -1.10647270286696
H          -0.83869446872353    0.52424751598596   -1.47253816038575
H           0.00198532181460   -0.99650788661467   -1.81045475111133
H           0.51018560726650    0.05317340246678   -0.56938517758571
H          -0.92740389312899   -0.78280547374814   -0.39686697426893
