    26
        -50.47113443  Gyration_radius:  2.4082392104 Dipole_moment: 2.399
 S           0.16429181556981   -0.30084466745117   -1.36349446101133
O           1.36226745211938   -0.58028813141353   -0.56918036834756
O           0.17678444998168    1.03046996364260   -1.90989633320546
O          -1.04424126025481   -0.55725055951988   -0.57095670292129
O           0.15216341524059   -1.31712654515448   -2.55031542340105
H           0.02335621333090   -2.17675505063075   -2.11624287425284
H          -1.01704441288762   -0.22825292142753    1.13769524087512
O          -0.68509041113344   -0.14128269237367    2.05262461603353
H          -0.18550546816679   -0.97345489104050    2.18374608084471
O           0.56676175422445    3.26550244616068   -0.32091004419602
H           0.69253434004372    2.73730954422366   -1.12557567060259
O           0.88870513213495   -2.25983053909533    1.49344097249546
H           1.21239002012065   -1.72723528545002    0.74289124759680
H           0.43036100277586   -3.00013091171565    1.08406226744612
O          -0.74295610571412   -3.12709905033671   -0.75395536861110
H          -1.01105565130412   -2.20583720119548   -0.53588584370111
H          -1.54436270004126   -3.60065969506827   -0.98577750604747
O          -1.91628639486593    2.19422247592010   -0.56692035322444
H          -1.34598656936901    1.71933094885159   -1.19400568034375
H          -2.38720826268776    1.51200405939514   -0.08451561012397
H          -0.40127839754202    3.28768199444837   -0.22288658466752
N           1.34353147180159    1.30964763003454    1.25933214122517
H           1.57081637529159    0.59589539923438    0.52009158707376
H           0.50569403568698    0.88201193104029    1.76613563630464
H           2.12733306304230    1.46084384203904    1.88517105617875
H           1.06402508259459    2.20112789685437    0.74532797863946
