    26
        -50.46322626  Gyration_radius:  2.5737280586 Dipole_moment: 5.245
 S          -0.73916211214093   -1.86007793027346   -1.15886372751336
O          -1.82720547309151   -1.97996991393162   -0.23079334121335
O           0.51478453983245   -1.45343161420847   -0.50681173765294
O          -1.00193235808936   -0.98821783072309   -2.29736073824866
O          -0.46691393229488   -3.29147119049122   -1.77643185948462
H          -0.00394786069010   -3.05841585493180   -2.57397704177871
H          -1.26809158947937    0.55432435048116   -2.02113486666111
O          -0.49642234750945    0.96245849722845    2.24739544182158
H          -0.78149929602010    1.55871408677816    2.94039202101633
O          -1.40633168669805    1.50580460712389   -1.76245054226983
H          -1.96130281566332    1.88286218419708   -2.44647923515571
O           1.70125804773835   -0.87906939662715    1.91105045034931
H           1.33098456398240   -1.32712308941963    1.13274098197731
H           0.95844093808161   -0.40488757490224    2.30711878549152
O           3.26456872746578    0.94063212774823    0.70974134693184
H           2.81758024898656    0.26529794538767    1.27563235013531
H           4.03296049900747    0.50615614215952    0.33857916465975
O          -2.45629450259757    0.44513099178167    0.62384907468691
H          -2.25363797346985    0.94112972864937   -0.18505783139270
H          -2.35945960023366   -0.49964040999442    0.38004332946482
H          -1.31853408656010    0.70109351462585    1.74197723443514
N           0.74991257268163    1.12939288395374   -0.14791408610799
H           0.32837184888798    1.25930160478366    0.79655212328521
H           0.22134571012931    1.65712359920245   -0.84933858678894
H           1.76410524943446    1.34025311740986   -0.08032799006245
H           0.65642265833347    0.09262942412584   -0.36813071996878
