    26
        -50.46332804  Gyration_radius:  2.58138601871 Dipole_moment: 7.588
 S          -1.98120328747136   -0.04615679230228    0.29683527230320
O          -1.52123942495406   -0.29027942051570    1.63519112906430
O          -1.46059060014516   -1.03721413065399   -0.66229018772315
O          -1.66049296871962    1.30315766079233   -0.18224458613573
O          -3.53820864944645   -0.18262593566623    0.28227494086729
H          -3.75335959146241    0.00846837190974   -0.64998858614929
H          -0.19804133563347    1.78978821301344    0.06984856488229
O           0.73885937496636    2.11164419252980    0.21215875329473
H           0.67388586215651    3.06801994871484    0.24018307969828
O           2.10875882971415   -1.78345234353077    1.71764632257324
H           3.01947416348490   -1.72781562169820    2.00862127412058
O           2.21779824359724    0.70405276295372   -1.50118470177845
H           1.65591495837014    1.29274686225527   -0.94690845146358
H           3.12542032446152    0.89249847837829   -1.25664277658780
O          -3.10480535864697    0.42077793495002   -2.26763965212062
H          -2.52714227696480   -0.35234883904823   -2.21933353519038
H          -2.60249126575099    1.11839979746433   -1.81935728597695
O           0.90760649137017    0.41797209813805    2.43511966583970
H           1.02018489664634    1.10238009766659    1.75791580182313
H          -0.02628501888870    0.14037474809512    2.33716370711899
H           1.64512551900807   -0.98439548049714    2.09649040909735
N           1.06321573788413   -1.60721586418318   -0.72426393783943
H           1.53283632062827   -0.76633356899297   -1.13475233411160
H           1.18915834919046   -2.42124357023788   -1.31636392109333
H           1.46314520074732   -1.77807244173409    0.23392664531882
H           0.01247550593274   -1.39312717785137   -0.64240561982329
