    26
        -50.45449949  Gyration_radius:  2.43273802794 Dipole_moment: 5.471
 S          -1.89254210339991    0.26483041163162   -0.67294667362626
O          -1.33511517082268   -1.15110097719887   -0.39919549537843
O          -2.69219469606250    0.27917898257832   -1.84764242214776
O          -0.78559416085139    1.19772977127661   -0.67313000014801
O          -2.74573433960877    0.50777127032125    0.58038250547824
H          -2.09323183924793    0.56146829774201    1.34632933507440
H          -0.27938825421517    1.08571077997663   -2.34888676648153
O           2.31107140450885   -0.79336003907423    0.20687307577893
H           3.26325261008066   -0.87449073664723    0.26929089699314
O          -0.14590819540854    0.62232821963306   -3.19430856353178
H          -1.03606001914789    0.44689386510695   -3.51432216875133
O          -1.03545342089114    0.47687075798112    2.51033675567838
H          -1.51249502513054    0.26615473272423    3.31615513527447
H          -0.48209429924153   -0.32693082206976    2.29855936402786
O           0.25633056150525   -1.69502828902008    1.80746066753154
H           1.07962690712248   -1.48490359150620    1.33033103585239
H          -0.38158907525836   -1.91736507196476    1.11658606352868
O           0.66129624221666   -1.50694356460581   -1.83340163946440
H          -0.51905766588372   -1.36477881307197   -1.04305152805301
H           0.54631588815997   -0.76939654700330   -2.47873744219213
H           1.36918450942968   -1.24875112092924   -1.20763497822525
N           1.50761272816364    1.59597402383686    0.94329721092413
H           2.07303961753544    0.15123897038401    0.46937660515959
H           0.67276299069852    1.59988184822123    0.35620890388860
H           1.18100234919328    1.62452027906589    1.90181435214765
H           2.01496246654755    2.45249738260558    0.76025579069535
