    26
        -50.45846902  Gyration_radius:  2.51981658729 Dipole_moment: 6.117
 S          -0.45363116328355    1.28696390829099   -1.14263821307099
O           0.30356775742746    2.09917020637544   -0.23148414449557
O          -1.34186539852984    0.34374371357709   -0.41047579526239
O           0.37261368696649    0.52802667885437   -2.06871944834988
O          -1.38964206971374    2.21932344508261   -1.96688337143563
H          -1.97307572031279    1.59075223299836   -2.43265373839581
H           1.49013216413698   -0.42003210085378   -1.55130666279280
O           1.16856190737896   -0.33033074961718    2.70455665836498
H           1.78225790151060   -0.62374609127324    3.37870135670126
O           2.12468501096255   -1.07527217981353   -1.13454403382859
H           2.60071717395396   -1.47464292375844   -1.86415846889383
O          -2.96936107965695    0.14131914343212   -2.45966163173985
H          -3.87874033432869    0.29634741233213   -2.19429175327706
H          -2.46138968140512   -0.01402664243019   -1.63827718855309
O          -1.75058260027665   -0.20701781069271    2.32430002261420
H          -0.95031981563769    0.13213549840820    2.73658851229026
H          -1.80357748538557    0.21489771337738    1.45754549759568
O           2.44107124039582    0.95750219640544    0.83961519490973
H           1.68628052487873    0.26024891551906    2.08522222199002
H           2.62305444328935    0.30477925307335    0.15029048166468
H           1.73031733164111    1.52653888495792    0.47404029181411
N           0.13172229435445   -1.58327867690929    0.58966878922335
H          -0.52084038054739   -0.84171449246980    0.18730329336506
H          -0.36713324137270   -2.45998040976618    0.69936940854773
H           0.94638703641377   -1.65301145294327   -0.05567660947717
H           0.45879048711172   -1.21869569216518    1.52356933050595
