    26
        -50.44132939  Gyration_radius:  2.52727859472 Dipole_moment: 4.341
 S           1.35068429742530   -1.58513031587794    0.73897341671829
O           1.26422914600389   -1.35283972335899   -0.66862862814483
O           0.43261038026283   -2.49142976798020    1.34012208736936
O           1.35786547779452   -0.25184744102753    1.48356084841945
O           2.80664232006741   -2.14876848476867    1.00638502396616
H           2.77967625764098   -2.63953563433526    1.82506433432791
H           1.76397194196882    0.43651335652793    0.80931222935577
O           0.00383449723587    2.31187358281149   -1.02048066974471
H          -0.14348060553186    3.23002214733460   -1.24924695570939
O          -2.60001271108045   -1.39557601064154   -1.39085659917946
H          -2.44340031449691   -2.30242041766706   -1.65777074981026
O          -1.80499558304082   -0.85193323249866    1.15728430574597
H          -1.14189942844152   -1.53250703767428    1.31742950640241
H          -2.20703114946700   -1.05132411919797    0.28784972651123
O           2.26933755548638    1.16754218163175   -0.35364410181102
H           1.48496576903935    1.70220035006141   -0.64904872318136
H           2.30709855789308    0.41517693445089   -0.95815408014480
O          -0.48736341542639   -0.07467833607875   -2.39760195363347
H          -1.92444878367835   -0.85499762968625   -1.85680548651748
H          -0.41985829603580    0.81672869743008   -2.02171352266720
H           0.15348951324390   -0.61387648630080   -1.91319494626571
N          -0.99757488469842    1.83204237435070    1.32586540884471
H          -1.75927195874726    2.39425513966058    1.68456379552419
H          -1.33827300994219    0.86494238110138    1.26050523293895
H          -0.44842154934371    2.14954394772552   -0.11781168135829
H          -0.25837404408816    1.82602353409560    2.01804220205310
