    26
        -50.46147055  Gyration_radius:  2.59209355391 Dipole_moment: 4.225
 S          -0.43105940178808    0.45421562243596   -0.40461288103314
O          -1.40313979838687   -0.11830205087416   -1.35200520837034
O          -0.25344669285170    1.87860977148723   -0.55318357735081
O          -1.07108625309999    0.16644777727908    1.00313110620803
O           0.81180832613766   -0.30312527091610   -0.44939887699385
O           1.88058948827005    2.34099525097253    2.62820600296133
H           2.36486226257031    3.12674441853226    2.88612442910489
O          -0.29828684030107   -1.87550594009799   -3.07924729069459
H          -0.73749124852688   -1.16869132307497   -2.56523130734976
H           0.34186859995851   -1.43450803738440   -3.63972516925116
O          -0.72276468897489    2.46074163224137    2.03031422706993
H          -0.62188250919274    2.75204250469522    1.11121888957587
H          -0.98597613615623    1.02526250504384    1.53336324507387
H           0.18969706396765    2.43462597788160    2.40282205418763
O           2.35701959869434    1.84698429327695    0.05329624033268
H           1.51791937622474    2.18840002766971   -0.29848842820710
H           2.17201709950043    2.12726323008478    1.70898997126279
H           2.25283995090053    0.89235488341521   -0.06974177615152
O           0.51283246506653   -2.89446714381334   -0.72834082178765
H          -0.87648683167301   -2.69835810615006   -0.22004738470760
H           0.35880412397387   -2.84467583002590   -1.69402025896352
H           0.83401947718757   -1.98631761805113   -0.51567175850304
N          -1.85169551675812   -2.24383512475426    0.01676709103272
H          -2.63748406389809   -2.85475221480999   -0.18150090253832
H          -1.84476929172884   -1.36245589859522   -0.60227556875425
H          -1.85870854911465   -1.90969332646257    0.97925797379995
