    26
        -50.47361552  Gyration_radius:  2.43362968826 Dipole_moment: 3.326
 S          -1.49629905114090   -0.10841386982432    0.24089887853098
O          -0.95144941981261   -0.55413991873773   -1.05209960994509
O          -1.14040254191489    1.27230284285690    0.50568852647808
O          -1.08251653585257   -1.00960951966303    1.29986902835169
O          -3.05270381140912   -0.15106968287395    0.13099386435526
H          -3.24432975737841   -1.08654304575646   -0.06815843968715
H           0.29990406315209   -1.82010778156874    0.76672683938182
O           0.25842277391261    3.22318842059562   -0.62012096525901
H          -0.43844717233650    2.66580871693832   -0.21794657830958
O           1.05993911436640   -2.21541040611840    0.29004188892439
H           0.74032881895069   -2.39768773810277   -0.59608776497967
O          -2.48810746282279   -2.68021546625663   -0.43810064058692
H          -2.07172754396910   -2.82096997006570    0.41928683743095
H          -1.85916495273048   -2.14941389457877   -0.95157094875583
O           2.62835857587210   -0.04175979382367    0.29913052142056
H           2.27135129332992   -0.95538125616678    0.33386750638367
H           2.20149656200219    0.40856527617717    1.06135356255872
O           0.94819516484560    0.94120014173562    2.14386203265351
H           0.75404600876148    3.58662114626634    0.11755773219609
H           0.15506790122550    1.14224715400019    1.61136115309365
H           0.69034804677129    0.18879594570659    2.68251020640910
N           1.17486838921615    0.91759982679547   -1.62249973513910
H           1.53202457978771    0.85646466205685   -2.56948171547816
H           1.88553925171084    0.54515224772681   -0.89128109164594
H           0.92312374625872    1.90499064100018   -1.36793485297610
H           0.30213395920390    0.33778531164428   -1.50786621543005
