    26
        -50.46071438  Gyration_radius:  2.58323946826 Dipole_moment: 4.701
 S           0.46748696183140   -1.04967489858436    1.19101767222273
O          -0.25276211872105    0.18367731349454    1.49478644173747
O           1.73340051816364   -0.78556489020601    0.51360910864906
O          -0.37088674458470   -1.95924618797238    0.42550744103900
O           0.78891534356793   -1.71269454967321    2.56486912113735
H           1.45476026194707   -2.39028524669489    2.33125478351234
H          -1.09102872187570   -1.56359004988390   -0.89761919676031
O          -1.54084126048147   -1.21037856824309   -1.71956578713564
H          -1.95627642320622   -1.96790504825873   -2.13389415302944
O          -0.11784044417917    2.59681531548126   -1.46335395241814
H          -0.09343261439102    3.06776707649559   -2.29704219741992
O           2.77983458854485   -3.00699789804752    1.40674682960049
H           3.65672246133855   -2.85196752925078    1.76538140466993
H           2.56652190655975   -2.22843410963484    0.85112101517943
O          -0.72369909259267    2.96839869144075    1.40426406824824
H          -0.41235671719572    2.11912702045059    1.74089550379146
H          -0.19106034422752    3.15160460243367    0.62433384302605
O           0.93337950226212    0.22855712513763   -1.81076140147192
H           0.18654415694668   -0.35188438560150   -2.00919668964708
H           0.41190381775553    1.76450594737122   -1.59549785454047
H           1.33310662425592   -0.11963274076849   -0.98724002480755
N          -1.94897519057086    1.02882615568860   -0.29165425126510
H          -1.39783803763572    1.79062765751023   -0.75746729494445
H          -1.31945837618449    0.67312900447090    0.49963597716651
H          -2.81383860773215    1.39103553425668    0.09540843268605
H          -2.08228141949064    0.23418466004148   -0.94553886864250
