    26
        -50.46882325  Gyration_radius:  2.54693861006 Dipole_moment: 5.058
 S          -0.50632993258909    0.00828251600577    1.32391432791155
O           0.21832512849166   -1.14523379135888    0.79586875641791
O          -1.87705929710591    0.03611890822897    0.82939265146722
O           0.20070369516846    1.25060699643379    0.99572000017428
O          -0.57758209860071   -0.11491128490145    2.86063747295608
H           0.30219003404279    0.25482464245186    3.16778945988455
H           0.33819997488127    1.61639371365928   -0.52966481184510
O          -1.53034251767444   -1.60951535438342   -2.76861559030890
H          -1.81591014477344   -2.36580940339060   -2.25264391397314
O           0.35322285703219    1.80723315070632   -1.50973999715775
H           0.81445437819624    2.64116612293690   -1.61027035924274
O           1.75150913471597    0.90768544713890    3.16508061727259
H           2.29657308019031    0.16569691557046    2.82784536430665
H           1.49506713957175    1.40949656184763    2.37652508033251
O           2.63441528999439   -1.26022467130461    1.86496356581088
H           1.77086958351417   -1.27204404518183    1.39641745014173
H           2.74174337225066   -2.13269433916392    2.24659256482840
O           0.80969658905041   -0.98024704632838   -1.79708028995757
H          -0.57049015704766   -1.47415130701564   -2.53397477045400
H           0.91879378455923   -0.02495437538951   -1.88923935348356
H           0.65767053375213   -1.13217026785763   -0.84064178394784
N          -2.10862116496437    0.70165168699619   -1.64415343832171
H          -1.25972660114770    1.27744459593072   -1.80590988036517
H          -2.95652012538488    1.20049576919460   -1.88868914052994
H          -2.00841987787209   -0.20962644543721   -2.18339644567967
H          -2.09243265642019    0.44448529690541   -0.59672754623215
