    26
        -50.47008302  Gyration_radius:  2.50836507329 Dipole_moment: 5.873
 S          -0.87289083860137   -0.64798267330878    0.54762248933689
O          -0.23178582116047   -1.81583812234457   -0.00594732813547
O          -1.31779507417151    0.24981795703839   -0.54114735355702
O           0.00216041728893    0.09034281256709    1.45938973059953
O          -2.13011245217859   -1.08543022797955    1.32682119525825
H          -2.30195057170927   -0.32457203060333    1.95663932846639
H           1.34775502548919    0.63108457756879    0.80983066648739
O           2.14673433861603    0.95575797659252    0.31105504281381
H           2.43755211443207    1.74874733231448    0.76400509032965
O           1.32955068527741   -2.16491402297808   -2.24997736934372
H           0.53535919821769   -2.43601210837583   -1.76564777454927
O          -2.14942967959869    1.05853923116879    2.73565835988955
H          -2.40598170226937    1.71579034612229    2.05539130895244
H          -1.18832062047223    0.96687173463104    2.64838757969218
O          -2.58886311526389    2.35825142616520    0.41936936093797
H          -3.47902545471564    2.33225001672280    0.06421825453478
H          -2.10482847382506    1.61483413308391   -0.00339563216008
O           2.50060168463331   -1.88986588436101    0.13199330502965
H           1.55639550000798   -1.97508439539410    0.35158981664959
H           2.03115083719746   -2.23693127672902   -1.56606301267098
H           2.72609774938674   -0.97213459200069    0.32149305684449
N           0.84088632815337    0.38686257620603   -1.98189951269090
H           1.51086781509013    0.73039110847247   -1.26363832503903
H          -0.11028157408013    0.36886780496241   -1.50117940011835
H           0.83348988326382    0.97846568214525   -2.80582889217668
H           1.08266381101329   -0.63810939150886   -2.21874000540661
