    26
        -50.46147045  Gyration_radius:  2.59120922001 Dipole_moment: 4.212
 S           0.37080516951978    0.15275451422149    0.62984909024643
O           0.22093462052582    0.57174733184613   -0.75683767085610
O          -0.12852346532187    1.20664599234450    1.53000758577930
O          -0.64387783159066   -1.02983903243507    0.84357419087188
O           1.69807419452746   -0.30578511537127    0.96190128191889
O           1.70381665211274   -3.27734304096672   -1.49838701241451
H           2.45284741319418   -3.82122679801744   -1.74636084012834
O          -0.53784894353909    3.56450039636495    0.27909642191857
H          -0.30352885028000    2.77997598833741    0.81417871573580
H           0.29009266000346    3.91045497756170   -0.05737669733532
O          -1.97573896623086    1.90973373970879   -1.27508009678052
H          -1.16682749220229    1.34701626326010   -1.31792918828797
H          -2.53102374366043    1.30018812010602   -0.03118224211251
H          -1.62878851868133    2.75438165392246   -0.92154477244756
O           2.43634635333768   -0.71652880535801   -1.58302822990693
H           1.97946226667619   -2.34160476394781   -1.65305649719172
H           1.63275496452942   -0.20709972923912   -1.76361299182686
H           2.54787141765614   -0.58443248200106   -0.62703961409999
O           1.04338469370946   -2.91188469837887    1.06681296095154
H           1.22792860286659   -3.19459707359811    0.14060644898190
H           1.67193872873709   -2.19754343085951    1.25253449145091
H          -0.08444227414433   -1.86873484332582    0.94031394600707
N          -2.60805279633591    0.84618031258016    0.96961239799685
H          -3.35025817186435    1.24541533036594    1.53506297847055
H          -1.62890820196578    1.03405683765871    1.37734654009054
H          -2.68843847157498   -0.16643163477169    0.89053881297338
