    26
        -50.46654164  Gyration_radius:  2.4691030076 Dipole_moment: 5.990
 S           0.18846888024791    0.53059251941048   -0.99166609275693
O           0.53459106916357   -0.85271823463580   -1.24487274586801
O           1.19844145552067    1.19708891167900   -0.15651595084691
O           0.18326104219776    1.32103166827819   -2.31774439914365
O          -1.13267300763791    0.65640572229464   -0.37212688041023
O           2.78791352088978   -0.26584877928279    1.41123299700566
H           2.32911564322064    0.22994028836853    0.69972578288432
H           3.56967476011156   -0.64588402726453    1.00818173740053
O          -2.12666842253643   -1.41973299450703   -1.68531832337254
H          -1.93057964947998   -0.66274040750835   -1.09749936669685
H          -1.32398162162742   -1.95167597639206   -1.65757446524443
O          -1.28164546464070   -0.22424931193927    2.11872972535516
H          -0.21359347740528    0.72842016829738    2.42899870720127
H          -1.49357860701055    0.11744029182538    1.22322210637277
O           0.53296294295684   -1.89379890845812    1.20254065994966
H          -0.74682243014245   -1.03514378526360    1.92707295102871
H           0.50073521837127   -1.65766158149355    0.25311343029355
H           1.39236425364921   -1.56009352653753    1.50109034556536
O          -1.66572543712092    0.17337518931082   -3.72442631274869
H          -1.92963055060844   -0.53573829322288   -3.08247478857096
H          -2.41951155256164    0.76235857589190   -3.79970350877128
H          -0.47519879880824    0.87737758219764   -2.92145225749805
N           0.67093717388568    1.39694876530896    2.37669586799410
H           1.49359547955258    0.92334334721233    2.75020575651065
H           0.52082801246561    2.29433416351019    2.82372367380515
H           0.83671958724072    1.49662860293119    1.32684134051160
