    26
        -50.45568716  Gyration_radius:  2.56685401032 Dipole_moment: 1.985
 S           0.63129960301817   -0.16150882467451    0.77023542529744
O           0.90117864955288   -0.22438290169280    2.28684040397654
O           1.79933026675111    0.42969838180315    0.14407456420053
O           0.34751456223669   -1.49430074340439    0.27109747875480
O          -0.55518493505075    0.71262925952963    0.58821914235330
O          -0.34236956972056    0.73842660255321   -3.15759996907492
H          -1.15975279647940    0.27184909928108   -3.34027518747358
O           1.98636347234270    2.87110284469634   -0.68599002822048
H           2.06386975289023    1.93487690242884   -0.36547235337017
H           2.18849431613988    3.43129618024035    0.06565671410258
O          -0.44279261266621    2.37139366785276   -1.22537250850962
H          -0.54920531292537    1.67461007628917   -0.41442149282388
H           0.51273181814301    2.72318742810458   -1.10258625398258
H          -0.42969632845225    1.77580510056155   -2.07144399359205
O           1.27927460299251   -1.03933971144195   -2.15156559189363
H           0.31120954295907    0.04789079826218   -2.84862729571794
H           2.08183980014430   -0.58603169330983   -1.87564019102706
H           0.88793646836070   -1.35427423934981   -1.30880982173075
O          -1.57371930468463   -0.41764911068393    2.86117215959874
H          -1.70872167856705    0.13531307870364    2.08022239461924
H          -1.76202266603792   -1.34746179216801    2.56938531732627
H          -0.01815190941902   -0.33020067125450    2.68660400168352
N          -1.69869716582765   -2.83956011017698    1.72399273994928
H          -2.45717915967355   -3.17487951269408    1.14368994099938
H          -1.34339229387978   -3.62762321063793    2.25051069987023
H          -0.95015713213251   -2.52086690882775    1.10610369468072
