    26
        -50.47200599  Gyration_radius:  2.49866503999 Dipole_moment: 3.917
 S          -1.87016686827172   -1.13152540819537   -0.21420200184202
O          -0.84187324674473   -1.85992620731372   -0.95474371462136
O          -1.77018229313144    0.29977469861275   -0.39886448421627
O          -1.92277236810577   -1.54362938787522    1.17533115891609
O          -3.25529525348032   -1.55998123413963   -0.85324900076599
H          -3.35969454171377   -2.44720831105878   -0.52637150914360
H          -0.70711702643009   -0.99628043796658    2.04791015721367
O           1.59557948636113    2.75204436135810    0.20968230464062
H           2.18620496028139    3.02099796912851    0.91425650187122
O           0.10359158577403   -0.65135427761858    2.50870951863341
H           0.07822117525305   -1.01730224377481    3.39437882570497
O           1.46870769019122   -1.47117158868986    0.28934529520150
H           0.65617971972340   -1.77847323912320   -0.16766126229092
H           1.16699169246005   -1.18936188348666    1.17138826263494
O          -0.34865153554493    0.12219594211426   -2.61262048173075
H          -0.45828331950554   -0.79232856924555   -2.28442673741829
H          -0.99188239396700    0.59792589012298   -2.06080275875301
O          -0.51999334819699    1.82105515609301    1.42853809158439
H           0.73985291355575    2.49621495312893    0.65419425770273
H          -1.09248818577642    1.40404097203747    0.75752877223260
H          -0.22940921661977    1.08324420914957    1.98763833566887
N           1.89841749483571    0.57852547304643   -1.30203872090599
H           1.84452787420311   -0.24542610463097   -0.62598717358201
H           1.84457485810641    1.47570103667016   -0.75522938839735
H           2.74648841521409    0.54063765158144   -1.85615245599074
H           1.03847175154457    0.49161058008920   -1.92655179233186
