    26
        -50.47201771  Gyration_radius:  2.51766751121 Dipole_moment: 1.421
 S          -1.58763680091079   -0.32840429612199    1.17133358816938
O          -1.18453534497081   -0.88810683879706   -0.11904013194565
O          -1.39476811134609    1.10573821476847    1.21318113051282
O          -0.98375380092752   -1.04482939777845    2.27405622941484
O          -3.14805149577663   -0.56350248051024    1.28769134787879
H          -3.19313063614125   -1.49466397919007    1.47650664561679
H           0.62506301369074   -1.05063883421415    2.10612502613455
O          -1.82924404218607    2.49129380781538   -1.05359515566048
H          -1.76722605813389    2.00799042821200   -0.20520695996060
O           1.59822301474610   -0.98638571185140    1.93740968692924
H           2.02794016341426   -1.26550048682977    2.74767685887770
O           1.17763313727154   -2.19132430846616   -0.53552747544650
H           0.24962437449139   -1.91599735093455   -0.44095576323870
H           1.59877854815797   -1.88824301960146    0.28291671072014
O           1.90696824045045   -0.82237546181058   -2.69899077082620
H           1.76457525812647   -1.40530220114800   -1.91265011498544
H           1.71599079323725   -1.36241932410512   -3.46653044764519
O           1.26273768681996    1.56010229046703    0.98966938217281
H          -2.30190172967502    3.30200082825737   -0.86240009929958
H           0.33322134011784    1.59384553865215    1.27772305988442
H           1.61153583420142    0.72819256154738    1.35485758656288
N           0.31503671026468    0.89628079518949   -1.39747484931070
H           0.86907885318921    1.25777629662660   -0.57403341989916
H          -0.33477288576011    0.17609213323825   -0.99572562718127
H          -0.26923873258483    1.65355119341036   -1.76428908311012
H           0.93785267025272    0.43482960317729   -2.09272734434275
