    26
        -50.46147030  Gyration_radius:  2.5904960504 Dipole_moment: 4.234
 S          -0.46856042095918    0.56491635207104    0.15313338821740
O           0.32181575543245   -0.03372815759194   -0.91367242102709
O           0.07962422772584    1.88673453126349    0.50329697807089
O          -1.88727149343150    0.58139410136085   -0.10930310005451
O          -0.19965395613939   -0.30009443921212    1.43897383567537
O          -2.27911160765672   -3.25142703310299   -0.31984805476229
H          -3.04722172920205   -3.73873093605837   -0.62145879293400
O           1.87063600009639    2.80249072611201   -1.29853985205022
H           1.44872063566306    2.93675859369988   -2.14848094837587
H           1.15096046245888    2.58558849609581   -0.67266012039837
O          -1.78236118750942   -1.27760805295804   -2.04031761017098
H          -2.15867455986165   -0.55194811932472   -1.51547783243331
H          -0.83247574624269   -1.09898482374979   -1.97721055889071
H          -2.06132530626317   -2.60867211822574   -1.03745888030798
O           2.90543466109257    0.38716282188853   -0.73491108400593
H           2.85499092686253    1.29033449112914   -1.10971167271598
H           2.66981964318280    0.67812550269229    0.70990503147800
H           2.00605174483683    0.02761310809817   -0.92129196002446
O          -2.47850807681203   -1.40489813899296    1.60415648468901
H          -2.42341838657998   -2.19219873930552    1.01348076150911
H          -1.05309038495150   -0.81621638430535    1.61489756955558
H          -2.76684666244090   -0.67268094490231    1.03797039118711
N           2.18892327593659    0.98130080122441    1.65349273285074
H           2.77870354369751    1.57050247585015    2.23227926035902
H           1.85421949079371    0.16103769212677    2.15661680133902
H           1.30861915024717    1.49322821410900    1.30213963321789
