    26
        -50.45798176  Gyration_radius:  2.74778382565 Dipole_moment: 2.211
 S          -2.44763762450554   -1.14667509075561    0.74615347878391
O          -2.15892060762940   -1.58767354476042   -0.59873455867868
O          -2.53079528447725    0.31341594535097    0.83775025468291
O          -1.54767980533348   -1.68838942877840    1.75228614197455
O          -3.89110921239262   -1.69194680856990    1.11361394834780
H          -3.94699339605184   -1.47649711741074    2.03916584850623
H          -0.00218011962766   -1.44864882664313    1.50315553337393
O           0.88027571289681    2.85262295380407    0.41727749070731
H           0.62113410080543    3.10517250487418    1.30475158707140
O           0.95681236681069   -1.36632122713621    1.24386605377753
H           1.38645447129517   -2.14801792821090    1.59559030326643
O           0.28792210021340   -1.05975737995796   -1.33874288733362
H           0.67413718946954   -1.23911546452611   -0.45485589211471
H          -0.61594877916797   -1.44092665752892   -1.26643789950557
O           2.80279128196629   -0.04320385117681   -1.93744449186351
H           1.96424560788635   -0.52855074889095   -1.95223567058521
H           2.87928690301577    0.41435734336429   -2.77526287348748
O           2.54604771670282    0.85363054720774    0.67267995191898
H           2.82870319244540    0.58394256447663   -0.21752893685792
H           1.59954405478535    2.17061760481728    0.52614671295026
H           2.02449669681108    0.10981315339523    1.01439664407255
N          -0.86058000119667    1.31001746072672   -0.86270460962152
H          -0.21148414241087    1.99293022854866   -0.38127306061563
H          -0.32241268902944    0.45549402595803   -1.16493553630295
H          -1.59390307599618    0.96071145185377   -0.16174160054372
H          -1.32220663715436    1.74299830993753   -1.65493595195583
