    26
        -50.45798185  Gyration_radius:  2.74786216678 Dipole_moment: 2.235
 S          -0.54284238848792    1.59963267718613    2.23860062497967
O          -1.23469696671599    2.14009670878573    1.06522196421612
O           0.89060575763254    1.58379291246035    2.06167922906266
O          -1.10300239974962    0.31794853675511    2.63737854427224
O          -0.85271268278280    2.60190172803856    3.42818779938588
H          -1.78877021834775    2.47501516069467    3.54593554095739
H          -0.75609351751685   -0.91962791630928    1.71237138498451
O          -1.43317237314347    0.03002594986113   -2.64813713445711
H          -2.37207578280506    0.08459587422971   -2.46378857251177
O          -0.41939950214330   -1.67863329432839    1.16079839475896
H          -0.35421307804121   -2.42368331716192    1.76076264681423
O           2.15824987032161   -1.95818816599853   -1.76515400815873
H           2.73710973611256   -1.63107750669257   -2.45422791923250
H           2.25274604926844   -1.36351539896436   -1.00600515814425
O           1.68215199490762   -0.21819824505871    0.34725558022500
H           1.01657325869475   -0.88395971144102    0.62342059527961
H           1.64664540572933    0.44465669951584    1.07319549272176
O          -0.59597482100934   -2.20141195123003   -1.57310029566070
H          -1.14553223248892   -0.87292854561137   -2.33803903159535
H           0.35632574475473   -2.28094652251843   -1.75158178945022
H          -0.66960879323406   -2.08155073406745   -0.61274640851311
N           0.11425454401401    1.45663978171204   -1.02964629616166
H          -0.47361866179773    1.79839247821990   -0.19978112433422
H           0.58449867286008    2.24317659476745   -1.46375050206470
H           0.81402005211468    0.77899568383570   -0.62635637866404
H          -0.51146765826180    0.95885052327697   -1.72249315869450
