    26
        -50.46947587  Gyration_radius:  2.50969697825 Dipole_moment: 3.443
 S           0.12919667728638    1.84223516218003    1.13107492238371
O          -0.37709732124799    0.60969729421995    1.71085401406685
O          -0.51691501387434    2.16934908017362   -0.13627376585933
O           1.57196588825074    1.86902066646875    1.02606720075012
O          -0.27355500260222    2.98767477680699    2.14612361644140
H           0.26680410034577    3.71595322886115    1.85832076489138
H           2.37807629827391    0.73311300455129    0.04275548867465
O           2.51325677319478   -0.05794972573280   -0.52271815949510
H           1.91022411685177    0.08377818105003   -1.27334070637973
O          -0.52382274869870   -3.13604245802008   -0.26601801723075
H          -0.18521856403205   -3.72199591966977   -0.94424773199046
O          -2.66415810194404    0.58736172377779    0.20074711202068
H          -2.06070765404973    1.30972273817744   -0.04356944765672
H          -2.31898409317933    0.28737441473124    1.04886541498308
O           0.36735817594761    0.65038389489632   -2.06075312984348
H           0.33140381114821    1.15346237829746   -2.87615815047000
H           0.03743506270238    1.25678801056990   -1.35112839391290
O          -1.66309000197418   -1.19371486565839   -1.56295055543258
H          -2.19555189280004   -0.62825136011258   -0.96267287598983
H          -0.93425558455229   -0.62481571955970   -1.86021463002160
H          -1.05645702598456   -2.44017985084826   -0.75006577936528
N           1.06102564777577   -1.51238572993581    1.10194061872275
H           1.75376376693270   -1.06307916160158    0.42311862779241
H           0.45153821394484   -0.71894382809180    1.43515775977350
H           0.45822729058407   -2.22112580999807    0.59670621275257
H           1.53953719169898   -1.93743012555268    1.88837957039484
