    26
        -50.46970036  Gyration_radius:  2.58902818549 Dipole_moment: 2.424
 S          -0.67082911659476   -0.49810718615250    1.42622684753445
O          -1.59933507663596    0.57118781907234    1.13413353712790
O           0.71289696833124   -0.04192287296606    1.31362957789610
O          -0.91275242025580   -1.67342524537958    0.58172379320633
O          -0.85398119559530   -0.94484527516136    2.90963989956876
H          -1.69892397624047   -1.43520085633673    2.89399380255717
H          -0.61224010577657   -1.26486792579625   -0.94481066030622
O          -0.39848048937053   -0.96659883115754   -1.86594898971995
H          -0.80046837217488   -1.61059090122092   -2.45169744141670
O           3.00214779484840    1.61724330721441   -1.50146701572425
H           2.97853892373669    1.65862511166979   -2.45862730636257
O          -2.84734713809433   -2.50710877132927    2.14379643066784
H          -2.28097169725764   -2.32472269322186    1.36687729074229
H          -2.73619345682304   -3.43779835864323    2.35125002752649
O          -1.29305513804388    1.57055711338003   -1.27829576751183
H          -1.65020417976113    1.26511716830058   -0.41455852610336
H          -1.02556245250690    0.75015004738028   -1.72769262789619
O           2.18865712362407   -0.79612097691737   -0.84544885179846
H           1.40944900404461   -0.94848586370231   -1.40271068826036
H           2.86356549763939    0.66214645559487   -1.26168940834455
H           1.82267296968642   -0.67240636899915    0.04829541039140
N           0.89109945758674    2.23690334187717    0.00113425719134
H           0.01692661097325    2.13458634006368   -0.60751832588939
H           1.75736910799791    2.15778882365712   -0.59162790553792
H           0.87458083510489    3.09819171933179    0.53518308123053
H           0.86244050156485    1.39970488944738    0.64620956923935
