    26
        -50.47460314  Gyration_radius:  2.41952923258 Dipole_moment: 1.175
 S          -1.89119633373776    0.03236672642076    0.62500409602362
O          -1.62998998050518    1.45747781138432    0.75067284273051
O          -1.07466804708368   -0.74625319042221    1.55411701518359
O          -1.80213357524395   -0.45140424937933   -0.73128293800158
O          -3.39308566728552   -0.17434053997303    1.07918490671957
H          -3.43152793552828    0.35625857032073    1.86758110900535
H          -1.43036111394256    1.29710257639907   -2.10413621326970
O          -0.84968091564854    1.94638854019497   -1.69332818802187
H          -1.12790268450372    1.92719902166071   -0.74976179194681
O           0.98616158145504   -2.16899702331698    0.79212727271385
H           0.18214614759058   -1.66782576644226    1.07518949573117
O           0.23874161403434   -1.77567484591718   -1.81714923944374
H           0.60402943903546   -2.17478936867570   -1.00990431985876
H          -0.62601802965815   -1.41346521128514   -1.53455887022739
O           2.42118068682875    0.19780313395250    0.64919696154391
H           1.88793984769561    0.68582966413582    1.31838110113685
H           2.14531328705565   -0.72903209270052    0.75129532498435
O           0.59135935021200    1.20332834369711    2.30549922438306
H           0.01564058353539    0.42014475785178    2.22322280787546
H           1.07069531095835   -2.90025054403412    1.40560652799116
H           0.06539750103426    1.90464537791160    1.90621435033651
N           1.42811093246237    0.57156134243407   -1.75002420808447
H           1.89586103600998    0.53505933386489   -0.78960855817273
H           0.60267665236575    1.23235041777619   -1.73191787058028
H           2.09146194730539    0.83707316476889   -2.46889508397551
H           1.02984838555710   -0.40255597062981   -1.92272577478720
