    26
        -50.47460344  Gyration_radius:  2.41965266975 Dipole_moment: 1.179
 S          -0.25551455218756    1.97503091795602    0.07120745365287
O          -0.25531185005205    1.42521999416762    1.42557368821594
O          -1.48697753550646    1.65560172569932   -0.63321416843802
O           0.93521886435245    1.63213801807458   -0.66767194714717
O          -0.24512524628875    3.54906399991112    0.23615385682710
H          -1.13205768531391    3.71806889644452    0.53506614710711
H           0.33311509661905    0.86675088249681   -2.70276030470714
O           1.17735575545209   -0.65323977173105    2.11823850783913
H           0.67034114710147    0.15837215793651    1.86921243956036
O          -0.47450765623335    0.34464945430625   -2.65223195622509
H          -1.00199329949390    0.81749712307205   -1.96925612296441
O          -0.73027746279346   -2.23875057645258    0.88369633759809
H          -0.03194498203984   -1.88638825251455    1.46145249213831
H          -1.47997233840239   -1.60986319797678    0.99604557709367
O           2.48615357092471   -0.50048774481997   -0.28812164676504
H           2.09395622358223    0.37882782659059   -0.46653248089381
H           2.29302441839361   -0.66049156423853    0.65064248973339
O          -2.38491402018489   -0.17024367777845    1.17767941275161
H          -2.66634075385571    0.21322045950145    0.34004566908056
H           1.38252431191908   -0.56054351658539    3.04962182458938
H          -1.66783855912294    0.42562151274720    1.46467688577654
N           0.48387473707151   -1.79871617440859   -1.39964542148105
H          -0.09752958639376   -2.05102574079237   -0.53880066310931
H           0.65205851650584   -2.61412723265032   -1.97771646407425
H           0.00850709523441   -1.03269878773684   -1.95244887042931
H           1.39417577050164   -1.38348674120061   -1.03091274574899
