    26
        -50.47071331  Gyration_radius:  2.41588966517 Dipole_moment: 4.146
 S           0.87287892599421   -1.00276612029212   -1.53097701979740
O           0.69686902345607   -2.00772214238997   -0.49525363192106
O           1.72895358642126    0.09479324654394   -1.15045923207693
O          -0.41390235798197   -0.53675546590299   -2.05124137994511
O           1.59703755057716   -1.73899287429454   -2.73126856046365
H           1.12494151033437   -2.56324185776725   -2.77886318531729
H          -0.35517911177584    1.10715188835533   -1.98779719187997
O          -0.09948419607937    2.03517528758554   -1.77681746216007
H           0.86121578959519    2.01321976091552   -1.85113566969850
O          -1.90935899949484   -0.02966084347817    1.65682518073354
H          -2.73831231091289   -0.08058623099297    2.13387085487696
O           1.96766156294566    1.03159347344669    1.33116246840087
H           2.11925401267792    0.72243190577923    0.41502428168326
H           1.68364995239545    0.21523065280048    1.80701746675766
O           0.70254687738473   -1.16694724950276    2.07163510242394
H          -0.21694338767806   -0.87758242445058    2.14150644375940
H           0.78637935834166   -1.58187375600335    1.19173765166414
O          -1.94789809313108   -1.73304059280559   -0.30403985765326
H          -1.98848176605675   -0.67489689062802    0.89373380406082
H          -1.66278257192200   -1.21706284767070   -1.08425799400479
H          -1.14859322040855   -2.24876384327480   -0.11395455574421
N          -0.35379719408804    2.06887113808448    0.85423803238188
H          -0.35203742780405    2.12438093529469   -0.20883035012981
H           0.64293362535265    1.72242428468903    1.13370708926113
H          -0.56096505359344    2.97177458587665    1.26591239641329
H          -1.03658606455127    1.35284598008256    1.16852530837371
