    26
        -50.47217126  Gyration_radius:  2.47581702593 Dipole_moment: 1.750
 S           0.72472117760933    0.34246093003559    0.91777892358823
O          -0.68469622975103    0.09170871094243    1.15485948053285
O           0.96608337458435    1.65003160792150    0.32392658114079
O           1.31170522440546   -0.71924703781167    0.09441590432320
O           1.42884302992391    0.29200310871806    2.30666803022411
H           2.30257964723600    0.70201344173525    2.13205455436946
H          -1.67813279443888   -1.10755753641958    0.37499199321444
O          -0.71333295087220    1.86235739243492   -1.76022631278387
H          -0.03443751031029    1.97940868018196   -1.06630765329092
O          -1.96747475897095   -1.78889913518107   -0.26440872554697
H          -1.42317978739196   -2.55930670259181   -0.01833708977716
O           3.37883431559653    1.75110456988437    1.32419348302085
H           3.55657176999265    2.59869279967590    1.73870337223090
H           2.60707950310916    1.88424498755668    0.73636919946143
O           0.22749359904627   -3.12244604234857    0.59410447665905
H           0.38241958504559   -3.35536796678318    1.51039618107869
H           0.72305637527017   -2.29294183525970    0.43865290102062
O          -2.70182141876608    1.45798999132105    0.00189802178648
H          -3.33552022523404    0.74825682003574   -0.12456896735649
H          -2.00569423060592    1.09346136694479    0.57995492760170
H          -1.56152292486511    1.91524524284353   -1.27263229020529
N          -0.30099739429984   -0.69821475387309   -1.98416502541121
H          -0.07938424227267   -1.11780318886636   -2.88017347526193
H           0.50138610666755   -0.76722295594165   -1.30796747113554
H          -0.52106742111825    0.35247828383846   -2.06003636618118
H          -1.10351180960650   -1.19245078900678   -1.49014464331312
