    26
        -50.46327471  Gyration_radius:  2.52306351494 Dipole_moment: 1.039
 S           0.67209081140986    1.27976525136829    1.35469596804096
O           0.00981977498805    2.50669320514479    0.98737150092013
O           1.53893449443671    0.74461077038140    0.31120420009570
O          -0.22236361604173    0.25198826158005    1.86472542263642
O           1.63445960177438    1.66180601449892    2.56357762085133
H           1.67807999383638    2.60768111731675    2.47057660281933
H          -1.82890564943725    0.48462404781268    1.40961488560310
O          -2.70002488263877    0.52702330109095    0.95804738543550
H          -3.13326266168418    1.31130366323291    1.29793281926411
O          -0.52204847040323   -0.19824144851439   -3.30209882842749
H          -1.36313026883345   -0.40749028091303   -3.71063914915127
O           3.01953352861755   -1.56523847334057    0.25879382953590
H           3.45565787757651   -1.78018485326715    1.08357904032072
H           2.66636103019977   -0.66475322912333    0.36293434103959
O          -1.16291739799087   -1.98125805172160    0.69441515014787
H          -0.74016637983202   -1.34219132405133    1.30025774127805
H          -2.05088192937395   -1.63263280816593    0.56580995154335
O          -1.07664572614067    1.25649143651368   -1.12132179270402
H          -0.70385632095628    0.50316115715301   -2.64249505705475
H          -1.82463713410071    0.94155903527739   -0.58464939977687
H          -0.58978036753686    1.85267016457274   -0.53022841433744
N           0.64727558185245   -1.29494651922192   -1.14376506660902
H           0.91837161081595   -0.39030226601086   -0.67869453383645
H           0.29651448065363   -1.07955580701674   -2.09921666736322
H           1.48564820945958   -1.87767636677427   -1.13049629884097
H          -0.10412620057810   -1.71490599855031   -0.53993128146110
