    26
        -50.46496093  Gyration_radius:  2.60236134204 Dipole_moment: 2.400
 S           0.26608360888726   -2.20075067637669   -0.05303448209335
O          -0.74235662595075   -2.31652037123273   -1.07523808942485
O          -0.19530277912122   -1.35676723600415    1.05801151513397
O           1.56298201785414   -1.76729971141017   -0.53808011398546
O           0.49775383925565   -3.64395728990434    0.55735670295606
H           1.38643806063160   -3.57996428795443    0.89463745045920
H           1.40094790962953   -0.36770805519256   -1.27265213277190
O           1.16101160884561    0.48904345894306   -1.71824105516962
H           1.29976501055185    0.34209180916086   -2.65507558095915
O          -0.76720624823844    3.01029456769653    0.91458025800200
H          -0.84640370304410    3.90053947113686    0.57094596626915
O          -2.90475172714322   -0.87873047989215   -1.65072707610101
H          -3.67245693637318   -1.37263978295139   -1.35940883038001
H          -2.14344875653900   -1.49267867190489   -1.56486274593484
O           1.66639239675975    0.07986450602827    2.29232819680201
H           1.03484469809961   -0.51004929065622    1.83021446597442
H           1.24726235538952    0.32008180739915    3.12076708645528
O           1.69323899577359    2.14794632219562    0.53930016011852
H           0.19864780387519    2.77910870461594    0.86429257051360
H           1.83341590246194    1.44332682694344    1.20478036201897
H           1.71595586858261    1.69553768682080   -0.31413547830040
N          -1.16252788236248    0.67623859464155   -0.32852406551155
H          -0.88275472809306   -0.07239621402585    0.35194994359571
H          -0.37876750239860    0.72745556496289   -1.01147412480892
H          -2.01947033124211    0.34988502087778   -0.81380816094228
H          -1.24929284609164    1.59804772608277    0.15609724808235
