    26
        -50.45918977  Gyration_radius:  2.47637980044 Dipole_moment: 8.308
 S          -0.57749658703687   -1.17278468437341    1.81883789401141
O           0.33943602085090   -2.09704554295732    1.22391155838953
O          -1.93453535088147   -1.26612140226969    1.26608035146676
O          -0.12659364191520    0.21985097654056    1.77326878220403
O          -0.71658666197847   -1.54336390074071    3.34836546747548
H          -1.42310948193518   -0.97339774807021    3.63262252729642
H          -0.80976609070065    1.34214403599078    0.86059982343971
O          -1.24254028686923    1.97939637929544    0.23040951126163
H          -1.49416297561542    2.74396667141026    0.74957365281115
O           0.53253289532136   -0.58315786893511   -2.27355797985354
H           0.68604252442355   -1.10325378825309   -3.06288418217652
O           1.05431236144011    2.07416611630000   -1.37565156273224
H           0.22869734251369    2.18983196981001   -0.88281016464661
H           0.96264073173339    1.24589014633242   -1.86549470659157
O           2.36219791684400    0.90149305115208    0.75249510506450
H           1.56158479332755    0.69994743884565    1.26259572670364
H           2.07593032310743    1.48889521506075    0.02804303725900
O           2.20043873173991   -1.40147191583694   -0.55202590198426
H           2.49523579808448   -0.57811537784909   -0.09140578432362
H           1.62632781154937   -1.83996204772586    0.10396713509318
H           1.22577564379308   -0.92071750067228   -1.58861800691751
N          -1.81855800147845   -0.28888985109478   -1.09739227518299
H          -0.89977853055645   -0.50564337929283   -1.58183003647280
H          -2.60992699989659   -0.51380197309918   -1.69104936805832
H          -1.88344044964555   -0.81027591217384   -0.15038419048942
H          -1.81465785622153    0.71242091259168   -0.83766643304049
