    26
        -50.46313941  Gyration_radius:  2.55787541273 Dipole_moment: 3.447
 S           1.42841114647111   -0.50267841180656   -1.66269153534746
O           0.70764095401341   -1.71992743537102   -1.40361601307023
O           1.81081957847951    0.15102857682833   -0.40343241190477
O           0.76666262807166    0.42930557746755   -2.55794136590931
O           2.78348014117676   -0.88887324449471   -2.38598006889847
H           2.97306592586170   -0.08507010624629   -2.85808060324876
H          -0.57580587016979    0.97880982581937   -1.89824392087964
O          -1.39711117913900    1.28335483806870   -1.42824571880441
H          -1.88469354381711    1.80287532798155   -2.07028972529106
O          -1.75010403867191   -1.88950345632181    1.38976246503279
H          -2.49744096063292   -1.43391483645075    1.77973305628059
O           0.18462385232553    1.52850637220387    2.84221700173019
H           0.32488001510431    1.96894118981153    1.96104286676398
H          -0.66441450953181    1.83484412367477    3.16292970233839
O           0.44141822774261    2.34189196071419    0.35853416671358
H           1.09600681178907    1.68875364892720    0.04798116777425
H          -0.35279875411243    2.14613182886564   -0.16515180439935
O          -1.92761306975708   -1.42942576692606   -1.16225672934396
H          -1.93991090300343   -0.46101164632574   -1.24263460718160
H          -1.01094675888710   -1.68484747535428   -1.38747600686438
H          -1.87797050359284   -1.82885368785241    0.39949956121167
N           0.67702255883002   -0.85987696099951    1.74440705319624
H          -0.25711216278108   -1.32335112028742    1.56400090464826
H           0.51574496307845    0.01130532412159    2.31150745008269
H           1.29540846943832   -1.50137238526143    2.22927996630309
H           1.13073698170473   -0.55704206083241    0.83514515905847
