    26
        -50.46495963  Gyration_radius:  2.59809662336 Dipole_moment: 2.445
 S           0.22890485167951    2.19465913022476    0.03575995047588
O          -0.47349415672602    2.25092984495132   -1.22125416808702
O           1.28572282626047    1.17437955457785    0.01069227303150
O          -0.63049506110739    2.03589343574753    1.19342469430216
O           0.96355700206564    3.58488448498342    0.23388602563027
H           1.04529247430783    3.64039445488780    1.18154629339001
H          -1.52271886776428    0.74838239486056    0.91532243966037
O          -2.02057544933027   -0.05614587641871    0.60912373393255
H          -2.90050719577300    0.25305535258292    0.38798416903765
O           0.56721089240999   -3.18975751567731   -0.13586667043382
H           0.10696531235254   -4.02328979266113   -0.23738393176292
O           1.67654884058987   -0.16613325785981    2.27399020209720
H           1.51928774329211    0.40056366719087    1.49062012318083
H           2.53072848216284   -0.57951964672118    2.13535866796229
O          -0.56773699294266    0.64642237451518   -3.34237884214786
H          -0.62935690574168    1.33497712454786   -2.64572171836508
H           0.01291542517754    1.00535232683783   -4.01476820221789
O          -0.35901293088441   -1.93130802808054    1.98406078155668
H          -1.08823144997998   -1.36532595893956    1.69992588703412
H           0.27399277940621   -2.81609412776467    0.73778800675610
H           0.35463301984021   -1.31479460579707    2.24826146305524
N          -0.06967587346619   -0.78982336646232   -1.12844168567192
H          -0.22588470636994   -0.53879762963772   -2.12252197354587
H           0.24927312223451   -1.77133939289479   -0.96315022146581
H           0.61936612095684   -0.10359031455161   -0.73475712013330
H          -0.94670930263400   -0.62397465250958   -0.59150019720489
