    26
        -50.45514040  Gyration_radius:  2.75103448129 Dipole_moment: 5.667
 S          -2.77317646622561   -0.52490796340749    0.67072672650000
O          -1.74665992476614   -1.29602886682026    1.32440496913203
O          -2.69429673444741   -0.60652361565907   -0.79334418755415
O          -2.82940564635325    0.86401948774054    1.10609182260191
O          -4.16766451550858   -1.17271030076382    1.06291134429605
H          -4.78980862423283   -0.60451136705885    0.61861308961505
H          -1.50272518040200    1.66976921894398    0.83534742718072
O          -0.68217827169202    2.15900804660149    0.54229016318828
H          -0.93342553784001    3.08278321791122    0.50204071178211
O           0.80898020719617   -1.44576085349456    0.74552722956925
H          -0.10191865735953   -1.56458644444104    1.09198738358700
O           2.75816224966512   -1.80935163567560   -1.09375327563183
H           2.05135601879176   -1.91050863047216   -0.42922545117397
H           3.53553286326258   -2.22589944230591   -0.71881498501143
O           2.51170765075513    0.87747001411103   -1.32162122634186
H           2.65676526241920   -0.09262122865802   -1.31910173624592
H           3.34381078254465    1.27518390826190   -1.57917023000475
O           1.71202042532438    0.98349580173046    1.35819879347367
H           0.88544087511088    1.48780823774208    1.35019757010988
H           1.18191424260291   -0.66912459197345    1.22466147140329
H           2.08735475157672    1.09738323185859    0.46829225762357
N          -0.25009840024431    0.08972126128059   -1.16250577745768
H           0.26730520093340   -0.58131664348898   -0.52783586786913
H          -1.27394943421879   -0.23300215111381   -1.17010989260676
H          -0.23833175438241    1.02169965539997   -0.70639541013229
H           0.18328859760647    0.12851166384740   -2.07941294007328
