    26
        -50.45746843  Gyration_radius:  2.62880336588 Dipole_moment: 3.913
 S          -1.17097301347877   -2.06056750198579    0.18904547179255
O          -0.27801879544902   -2.68470634587092    1.11862414160950
O          -0.46987305477437   -1.61111988077823   -1.02506152467160
O          -1.95568147115434   -0.97283060445320    0.77049851785213
O          -2.21904273122994   -3.14829154171711   -0.29512469294567
H          -2.83143224915090   -2.69824924026589   -0.87398333083311
H          -0.79386771055920   -0.24980603812957    1.63201947145177
O           2.97566868237913    1.19891072718893   -0.54681732022507
H           3.77039180536075    1.56276436862633   -0.15473085548971
O           0.02612380208196    0.05730894483484    2.09552268600700
H          -0.00281472432671   -0.36536636932667    2.95639794390945
O          -0.95974084513062    2.65613456596324   -1.28119902358095
H          -0.69943274324442    2.92592835755544   -2.16260325422639
H          -1.49322554447674    1.83663157568938   -1.39115431217929
O          -2.24448214301341    0.30984938246027   -1.55723438930724
H          -2.48224489962757    0.12090847628886   -0.63560691035303
H          -1.51555203444276   -0.31389347949041   -1.71589347500863
O           0.93425642331913    2.34119117003984    0.60695497059102
H           0.23495503949506    2.54229321647994   -0.05029335530408
H           0.53583587758068    1.72047660468853    1.22985871212367
H           2.21720262610823    1.73518767539240   -0.17992415426590
N           1.71795045117596   -0.98527920104003    0.25064675452451
H           0.95204234099902   -1.25112059835491   -0.43149984681849
H           2.33866847801766   -0.22284865631758   -0.13894252804097
H           1.19173511820262   -0.61609320582260    1.07941642689023
H           2.22155131534166   -1.82741240165431    0.51108389650184
