    26
        -50.45568722  Gyration_radius:  2.56729502928 Dipole_moment: 1.975
 S           0.47205531505034    0.57277254270742    0.67870804701010
O           0.68529959124226   -0.77678684671360    1.16754737979706
O           0.41826363515999    1.55099655787242    1.86916685217116
O           1.53392905032158    1.01920270821180   -0.20385127942868
O          -0.84407139154383    0.66448273830086   -0.00263835311436
O           0.14527594184012   -1.51667608982354   -2.88727044041653
H          -0.45319919579847   -2.24560332850964   -2.71507527628029
O           1.20466655086747    2.32463888789763   -2.41125018871968
H           1.07697311389348    3.25097871033414   -2.19882327345445
H           1.47098694687640    1.87809377458983   -1.56578769072525
O          -1.96625477577596    0.89409895847673    2.48168035837363
H          -2.08088961655451    0.76019481731987    1.53150401643125
H          -1.81934539164258   -0.00927084025345    2.86570637261549
H          -0.49770718192879    1.39699320837659    2.26083068021530
O           1.93946865913629   -1.60812395113953   -0.99612066835445
H           2.50872693805389   -0.83844733726060   -1.09261225133883
H           1.48275486236023   -1.45436337307301   -0.14152885857887
H           0.88118992517763   -1.59372688752218   -2.21515681439883
O          -0.81430650348053    0.78708219807081   -2.45960838216560
H          -0.45545648988859   -0.14677761289592   -2.72364541424850
H          -0.89246692019421    0.74520772869658   -1.38870786723225
H          -0.04435803629413    1.44783747277305   -2.60890917798863
N          -1.16109317464543   -1.56092377405329    3.18816747224926
H          -0.41834591832644   -1.45003651448798    2.49554589784709
H          -1.65253939014773   -2.42093871230447    2.97981587662393
H          -0.71955656375370   -1.67090505558767    4.09231300309894
