    26
        -50.46489675  Gyration_radius:  2.45283178887 Dipole_moment: 3.798
 S          -0.09235447459610   -1.76653071243143    0.49438614810269
O          -1.29135637757289   -0.96251382171964    0.34423664544350
O           1.06537480676281   -1.15529600855609   -0.13604393996018
O          -0.25993590292926   -3.16550808734571    0.22073094033790
O           0.23093663628567   -1.67997366179410    2.08324191353104
H           0.52363938140349   -2.56432110392340    2.28106544028015
H          -0.95028934675424   -2.66585535524351   -1.30587908845545
O           0.11582777588201    2.37726595406968   -1.29442854417213
H           0.06914444066618    3.03959486663384   -1.98436101526248
O           0.60308305794251    1.10956141732785    2.69843920773281
H           0.51199755617608    0.15013439028493    2.76330106455661
O          -1.13263421083641   -2.38175070631922   -2.21659456270246
H          -0.73606531684292   -3.04664950291755   -2.78477021140507
O           0.21242259742088    0.00716952627298   -2.36312706918693
H          -0.52122116203358   -0.60684899905609   -2.52718606817299
H           0.11871344436778    1.49176613815740   -1.75844918448086
H           0.69147108206871   -0.42720003594368   -1.63074046737219
O           2.07853166969759    1.25015200736235    0.51667991699692
H           1.87104855262587    0.33129463924000    0.26095406472812
H           1.63981299315464    1.80319906200335   -0.14265028612200
H           1.32973232809454    1.25258869502084    2.04263811935117
N          -1.23804311538652    1.55342815463289    0.88962739021693
H          -2.13551958622360    1.95934160750990    1.12782627276399
H          -0.56548754337746    1.53679972997657    1.71842925017846
H          -1.34139841538875    0.52124340020507    0.62092746832606
H          -0.79743086053543    2.03890841647084    0.08174660464872
