    26
        -50.45568703  Gyration_radius:  2.56683551181 Dipole_moment: 1.982
 S           0.29459941654030    0.39284190905052    0.87861179715613
O           0.18295642820517   -1.02690947668973    1.15746906799965
O          -0.71688913770958    0.79340467436779   -0.13196914575751
O          -0.02012237920638    1.19646644122027    2.15604747443880
O           1.62616854309999    0.77105019418930    0.44309767947614
O           0.88024922681323   -1.12652364851872   -2.93162215641481
H           0.17849940093931   -1.76421909226792   -3.07338078809055
O           2.16777357324418    2.39203717010034   -1.49720228204805
H           2.08732174297655    3.29061199812732   -1.17229520824223
H           2.09829955415701    1.80041483202671   -0.70328552371629
O          -2.53530850054917    0.87179938515972    1.90991138306706
H          -2.62490404316830   -0.08701152125605    2.15033882850891
H          -1.02456051192918    1.14663754101203    2.22571754896246
H          -2.35701281940811    0.88892052058249    0.96027507576706
O           1.96156637204059   -1.75882642883162   -0.64397907049421
H           2.61482235565577   -1.08553558604447   -0.43010651751345
H           1.27609956233574   -1.64685121310281    0.04899119094365
H           1.35261480415491   -1.41063673287356   -2.09760906160941
O           0.10561781437395    1.22682303069505   -2.40973562412570
H          -0.31313392838707    1.05950869525197   -1.43433266113551
H           0.95389192530186    1.76601039732646   -2.20658098863915
H           0.41969331511422    0.28934081469473   -2.71487432553954
N          -2.28956944276917   -1.75602546042941    2.36607609218143
H          -1.35732490957418   -1.67824965926186    1.95550065950188
H          -2.78627353637999   -2.48534694345057    1.87012718397270
H          -2.17507482586691   -2.05973180106767    3.32480936134902
