    26
        -50.46489672  Gyration_radius:  2.45261052352 Dipole_moment: 3.803
 S          -0.94896231734727   -1.38242759143141    0.74849128964569
O          -0.35123944529254   -1.50198306011723   -0.56867772519205
O          -0.40060217075544   -0.27010746289818    1.50557692517426
O          -1.06152773116217   -2.61272251501003    1.47909582596849
O          -2.47764895555011   -0.93251262199462    0.43582980603827
H          -2.97281515158705   -1.42515733960418    1.08310141446516
H           0.64616830966541   -2.81894652759356    1.16777670799225
O           1.61739948486129   -2.81076615750544    1.16525837933921
H           1.88644630473505   -3.14719489060979    2.02347854328277
O           1.87123234094877    1.78320223538733   -0.81014217964675
H           2.71661509753321    2.19634273795240   -0.98769716348504
O          -2.33374006956131    1.54775107290583   -1.02150157751773
H          -2.65199122050171    0.74862335798047   -0.58204365255339
O          -0.52193337236433    2.30572566302875    0.73851157884721
H          -0.50420677893088    1.43052669385809    1.17046973059416
H           0.33807659482428    2.39458921837297    0.30768178507625
H          -1.81321296443170    2.02767711203893   -0.33054922688591
O           2.18330705661438   -0.13539884119729    0.91898261766717
H           1.28148998909765   -0.09873482871814    1.29312435158555
H           2.30084623727893   -1.08351278902730    0.74755188640752
H           2.05482565949559    1.03825813864567   -0.16913215074794
N          -0.16036778222888    0.56046031089444   -2.09840115383076
H           0.65400620855784    1.11793305776485   -1.76928640576460
H          -0.09943633775546    0.35517672130251   -3.08890265262046
H          -0.18175674798242   -0.34073594436798   -1.51894565580404
H          -1.07097221816730    1.05393424996570   -1.83965131802520
