    26
        -50.46489678  Gyration_radius:  2.45263575265 Dipole_moment: 3.795
 S           0.73273394838254    1.27291824177644    1.10173398840216
O           0.70168563905622    1.37260396752916   -0.34755599098928
O          -0.19832235182979    0.28091792846645    1.60716622103659
O           0.71610121265861    2.53044043193084    1.79345860280484
O           2.18893709335902    0.63021972613121    1.42262137856933
H           2.69545983786605    1.39219098679121    1.68667355297556
H          -1.00862094903506    2.53456279352196    1.51110215630340
O          -1.91345899766612    2.61770868780214    1.16783250096040
H          -2.02930879178706    3.54583535724904    0.95052005001915
O           2.29678084178763   -1.89725358117388    0.04411340053988
H           2.50580063072739   -1.13315395729601    0.59682239102450
O          -1.50562064642895   -1.44954737982216   -1.72288629926538
H          -2.23529518656045   -1.73735910431977   -2.27204869699013
O          -1.82638341629742    1.05230422809207   -1.08558199055965
H          -0.87878574721497    1.26298466693269   -0.97513585398445
H          -1.69626702247800   -0.49786186364849   -1.48315215224889
H          -2.21872612774983    1.42030687714657   -0.27753738472896
O           1.26099424112202   -0.64736171634330   -2.03454735289929
H           1.13756086763403    0.18178005735649   -1.53448818825227
H           2.11407565129433   -1.52063846826407   -0.85223745719197
H           0.36909451239217   -0.97683243542447   -2.20528300755916
N          -0.25876224656149   -2.08167622137177    0.58523464734653
H           0.78176432864802   -2.20942423937232    0.38379566680536
H          -0.62655451873511   -2.80309756646212    1.19451101684503
H          -0.31418155555721   -1.11851367824216    1.05170178700161
H          -0.79070122702036   -2.02205374892844   -0.30683302590227
