    26
        -50.44747969  Gyration_radius:  2.44635917648 Dipole_moment: 6.069
 S           0.96177430329474    2.06853162637277    0.81952478935178
O          -0.16411543720317    1.46757248502150   -0.06009227747948
O           1.60592512192051    3.13530859912986    0.13845721771637
O           1.96148746760232    0.88418500241416    1.02014638029782
O           0.37462289275404    2.30171784667781    2.10145180997713
H          -0.11980121328841    0.68171181453910    2.23048781512796
H           2.23324117859359    0.46018893685458    0.16806326428492
O          -0.30679525634112   -0.27524262691042    2.31774827190778
H           0.17502747417931   -0.55835786007764    3.09777929612760
O           2.42127495338128   -0.66082395956105   -1.02549054041285
H           3.26389017125069   -1.11134340953862   -0.95211476029134
O          -1.46372354936605   -1.38470277124519   -1.61228894186775
H          -2.11802197091582   -1.85467781177415   -2.12983700843045
O           0.33609024508659    0.52228003582090   -2.35360915125139
H           0.08531464233268    1.22170555702142   -1.02058836736965
H           1.20249724453413    0.11605679279686   -2.20215095162607
H          -0.32273469503530   -0.19589550865069   -2.25974232010194
O           0.53124932070855   -1.90060377785266    0.22508058004193
H           0.25632805657207   -1.32108418370629    0.96192253997315
H          -0.20020283370466   -1.87814964770790   -0.41404637127675
H           1.74062116607642   -1.24178571203711   -0.56214636426422
N          -2.59240558539251   -0.06996457073129    0.38205360475509
H          -2.22386503923423    0.85820578892184    0.20113563870477
H          -2.10337048725804   -0.39734169333834    1.21020860429363
H          -3.57462556747892    0.01709278443080    0.61182470738282
H          -1.95968259306894   -0.88458372686844   -0.89377748557090
