    26
        -50.44273655  Gyration_radius:  2.4259037465 Dipole_moment: 4.784
 S          -1.31007025278901   -1.01503719278131    1.42912863251223
O          -1.88442298530423   -2.31780132265007    1.23372706118952
O          -1.76001703382382   -0.27557136198643    2.57639810752079
O          -1.84031743768987   -0.15020505670247    0.13565290100904
O           0.13948292076363   -0.97164408361390    1.22831502442910
H           0.07636175802807   -1.92957912388876   -0.05019419544196
H          -2.78775194961893   -0.17607802003314    0.23083160548171
O          -0.24898060049227   -2.35527165085798   -0.88367069440670
H          -1.07224974623857   -2.75724281049360   -0.57520013175203
O           2.39302358611102   -0.67370415360789   -2.06081067965388
H           2.48348696807933   -1.61878976296204   -1.91662217316977
O          -0.17110880669634    1.91713009908677   -0.82370556162714
H          -0.93279984764557    2.41612416167130   -1.12136016181418
O           2.18004243431906    0.47409580794574    0.27298842135129
H           1.75894209670301    1.30725716784447    0.04088226562594
H           1.49189288879326   -0.05600264183799    0.72524597167324
H           2.49031247608438   -0.24320203607754   -1.16532803081931
O          -0.07912987596390   -0.22915285833266   -2.20822019480937
H           0.95358718296695   -0.35502669027631   -2.30193627188487
H          -0.33969124718764   -1.09312753156120   -1.68678470469944
H          -0.19826211150123    0.58531551869402   -1.58670997279088
N          -0.25849911938713    1.93755989392249    1.79670692289839
H          -0.67264307909384    2.76422874989506    2.21140428999596
H          -0.25574712802956    1.86087333887087    0.18778257266654
H           0.65904013301697    1.82175294186358    2.21138566344729
H          -0.81448121340545    1.13309861784809    2.10009332306305
