    26
        -50.44273652  Gyration_radius:  2.4259591445 Dipole_moment: 4.784
 S           0.62096317131653    2.04643897651428    0.46483242888678
O          -0.14832972297471    3.22416097780378    0.17083852350083
O           1.95545253442990    2.25225224557908    0.95705142378284
O           0.81819306551061    1.32628546868448   -0.99961005586734
O          -0.12596084541908    1.01830421109374    1.19178398353936
H          -1.44717910631284    1.24011097258157    0.31888966880187
H           1.28928991294376    1.98359687121844   -1.50296870564836
O           1.02919874925922   -1.48990303585527   -1.05071833852973
H           1.58730329076111   -1.44972101538373   -1.82835793200943
O          -2.66348581181155   -1.82626594737994   -0.01789721085535
H          -3.31034011220673   -1.19237796730455    0.30125731970563
O          -2.03314005473679    1.43160453301858   -0.45680022840931
H          -1.77859579753971    2.34209643595844   -0.65859836968684
O          -1.27188102338937   -0.60110660086322   -1.71895145561526
H          -1.89070158384094   -1.20987034306792   -1.13792490911189
H          -1.50085480324459    0.34086217916737   -1.33639389653722
H          -0.30966130030282   -0.84958443633516   -1.44276927232105
O          -0.53164447147619   -1.61304158487246    1.47177479601641
H          -0.35807779091630   -0.64927590143447    1.48467448936394
H          -1.93579780042326   -1.85209884380454    0.66510445253980
H           0.14227853924081   -1.99323258056702    0.90025854506781
N           2.44170601434424   -0.49050939362801    0.91923929597583
H           1.55199678922013   -1.02815886675987   -0.31115496060609
H           3.44256074172391   -0.63466784690226    0.85304751283486
H           2.28010462994676    0.52026629792417    0.94212245179697
H           2.14660281589523   -0.84616481539621    1.82127044334661
