    26
        -50.45514028  Gyration_radius:  2.75154339242 Dipole_moment: 5.662
 S           1.16528119549121    2.65399927456462   -0.13311270295764
O           0.71217925947208    2.34781442631382   -1.49595543966311
O           1.94292250300120    1.58761393390398    0.44448917317623
O           0.04681108283146    3.08000922079561    0.69715911078557
O           2.12314074371906    3.91163371069636   -0.27044631459934
H           1.53976733987701    4.57502031804883   -0.62668412290179
H          -1.00600291625114    1.94228024869905    0.97871675332440
O           1.46494163797714   -0.99289056378253    0.40523164604263
H           1.84302149750723   -0.09128230187613    0.49477141988658
O          -1.67404971025965   -2.41796379198559   -0.41832899608254
H          -2.26605455600393   -3.16803981280875   -0.35650853750101
O          -1.69286895310293    1.21858784283975    1.03452120349403
H          -2.51838582503264    1.66201333294750    1.23466936761210
O          -0.70793679043417   -1.23342086651164    1.92662198414501
H           0.85645610931308   -1.10910924360973    1.17199204684259
H          -1.04376215070786   -0.32551743361163    1.90234529417993
H          -1.18420377371822   -1.69925831280867    1.21819734995141
O           0.84608610572991   -3.22654739150136   -0.98810395625749
H          -0.80071363886260   -2.77518845766410   -0.68657012430349
H           1.28494930959969   -2.46831466636662   -0.55930367771809
H           1.23298281618141   -4.01180725279303   -0.59818896387228
N          -0.45069738547445    0.09242413608949   -1.10189059193753
H          -0.87769555253306   -0.44991167901620   -1.84594086071620
H           0.00851416881398    1.00655387270193   -1.42739587497602
H          -1.15267433684805    0.35493209403180   -0.38422916251908
H           0.30799181971032   -0.46363064730428   -0.61605604343430
