    26
        -50.46026522  Gyration_radius:  2.46586170506 Dipole_moment: 6.803
 S          -0.58380074618736    1.84315551047810    1.15738458420313
O          -1.76694316674142    0.97966467720493    0.99171648681445
O          -0.85872343953254    3.21099908225083    0.85605142406461
O           0.42417967656616    1.33305227051726   -0.01823072303113
O           0.14243726074331    1.54235783776905    2.36622892979372
H           0.72319727098734    0.06524796671504    2.38987794055171
H          -0.04303098069983    1.62827640431883   -0.80609355982907
O           1.04455263779054   -0.87970502548688    2.38528473166322
H           1.19517974426746   -1.10317335076851    3.30505566109331
O           1.74987960049031   -1.35785052397754   -2.04090347116276
H           2.21850069480540   -0.85622515920668   -2.70924234781105
O          -1.82229249184270    1.42236258254101   -1.51947902048792
H          -2.27231057520059    2.23886579719536   -1.74141059931296
O           2.60544997364200   -0.33013575634257    0.20760258489571
H           2.27298987116051   -0.75479709139864    1.01575522011642
H           2.13773204905913   -1.07094766611215   -1.16813998294777
H           2.07455753938885    0.47732827270425    0.14500633821666
O          -1.15539041344408   -1.53421859862553    0.96210110269812
H          -1.51951391147379   -0.62556922806283    1.10656596624140
H          -1.96481474476267    1.29485607560724   -0.54182244611174
H          -0.31573653091595   -1.52809946256530    1.46196802386707
N          -0.86343336921767   -1.20021235649756   -1.58581167338822
H          -1.38142590703839   -1.88871790106996   -2.12161080283336
H           0.16346342143216   -1.23848860294549   -1.83038696559439
H          -1.24284664741576   -0.25712531880740   -1.75189417192918
H          -0.96185682584637   -1.41090043546387   -0.51557321972591
