    26
        -50.46200306  Gyration_radius:  2.50515770705 Dipole_moment: 4.548
 S           1.52273095361790   -0.23241445421083    1.89168264023560
O           0.33414065108332   -0.91310254023530    2.39463434634944
O           2.71557218772578   -0.42787277534885    2.64878386567334
O           1.18200496651357    1.34841675214868    2.06086278830588
O           1.64477996135977   -0.41460484546280    0.44754604121984
H           1.49401129506377    0.78296695546991   -0.62254381376321
H           1.68666682423698    1.50344856417442    2.85148333655958
O          -2.40111991832458    0.43601771344291   -0.54820356723483
H          -3.28220378780361    0.81059567746687   -0.56972933142402
O           1.34260741343814    1.48359084976045   -1.30708656566401
H           2.21012387118168    1.76654960673954   -1.59795280887893
O           0.57068452346525   -2.19256240656890   -1.29553279090127
H           1.21594816018397   -1.69002676774607   -0.76761683027502
O          -0.73134532506025    2.27109149107793    0.27190473753259
H          -0.05545089354840    2.24695852826776   -0.42746991744876
H          -1.80033711380479    1.15621249672947   -0.20682116750436
H          -0.24809286755081    2.01655557403026    1.06985682758710
O          -0.50064531599257   -0.12116601829035   -2.60349270732539
H           0.23685323955014   -1.55281587302724   -1.96702839744979
H          -1.28499985056544    0.05962474611146   -2.06705182658859
H           0.16078451627983    0.53436003567784   -2.32533620724846
N          -1.23076676256527   -1.78734903619857    0.53794814627392
H          -0.61244630547189   -1.42976432980587    1.33917561554048
H          -0.55234764318789   -2.09329223253894   -0.24247866792749
H          -1.80964534801966   -2.55682667809635    0.85447485012382
H          -1.80750741181534   -1.00459102357451    0.17999138421602
