    26
        -50.46026501  Gyration_radius:  2.46696892932 Dipole_moment: 6.824
 S          -0.54203554252109    1.75392344403714    1.31316489724590
O           0.92188021688209    1.58030926052071    1.31117745135495
O          -1.06815222106123    1.94441072865234    2.62612738213310
O          -1.09625458483706    0.29919962180667    0.82889139303229
O          -0.98416693623868    2.63935770367008    0.26445347306501
H          -0.65370768002213    2.09746749053454   -1.19018710254272
H          -0.86770446502680   -0.24998660107025    1.58521760874569
O           0.73860475496138   -0.61690191578882    2.59189594882602
H           0.67773993973744   -0.49058369546090    3.53989185054866
O          -0.68940755664943   -2.67022307190086   -1.21746917566426
H          -1.35225838805435   -3.24361496348188   -0.83052967609060
O          -0.39974806868224    1.74259929343885   -2.08787452611097
H          -0.40856041675075    2.50045168063487   -2.67453508259675
O           1.80386586478865    0.67642967007397   -0.94738333041236
H           0.92044675012248    0.28586105698953    2.21150549178455
H           1.09805823098942    0.97070015894011   -1.55580391922378
H           1.60286725802461    1.15745088177008   -0.10639728907912
O          -1.98765750371966   -0.44402696143849   -1.66678773880853
H          -1.99122275710665   -0.15112878662900   -0.74373734739684
H          -1.48216503318568    0.25067766966006   -2.12050378442667
H          -1.17846710404570   -1.85089143282029   -1.50720381077976
N           1.39353658235275   -1.65846965425070    0.08647318607384
H           0.56268192912768   -2.11074091036759   -0.38320168067392
H           1.58473015064498   -0.70388698054939   -0.41511710048571
H           1.18666593199596   -1.45263226916198    1.07450423199503
H           2.21043065826928   -2.25575142780209    0.01342865948009
