    26
        -50.45490180  Gyration_radius:  2.54775079552 Dipole_moment: 5.612
 S           1.31517411852629    1.85178603254401    0.65300759041355
O           0.99897543106336    2.79073166811152   -0.39215371439358
O           2.44772859167485    0.97740776368529    0.31797920278380
O           0.19675517005597    1.07113296152519    1.13812187396578
O           1.81053053210049    2.73138862214537    1.88937388872736
H           2.11988052200827    3.52109651121290    1.45675027085539
H          -0.14109177606825   -0.35352259772078    1.73577739725320
O          -0.21434316858475   -1.30192630300021    2.03009801739053
H          -0.41938380406976   -1.27161527190375    2.96524169494896
O           0.03670324415765   -1.24371663756753   -1.90978509837586
H           0.22875117364418   -1.37620875552108   -2.83873885970449
O          -3.00706227769624    0.68424320981107   -0.41982285613920
H          -3.74768617427338    0.61158429583674   -1.02362586724445
O          -0.67989102825240    1.19729729661297   -1.72871232473639
H          -0.08150578491297    1.82342581033842   -1.27899949821744
H          -0.22830849998252   -0.26228220844897   -1.82707561057308
H          -1.50110087201229    1.17649497861819   -1.19224478629935
O          -2.01914167094074   -1.80934788404191   -0.04954397284006
H          -1.49145048542012   -1.71291680659169    0.75830827263194
H          -2.74458732637268   -0.23442866759099   -0.19370352434949
H          -1.38730489937718   -1.76140289874175   -0.78105584585306
N           1.71714921324150   -1.45581907183113    0.14067000428119
H           1.11957406592892   -1.46758809184782   -0.72566296812032
H           2.08430226004600   -0.43062115440556    0.23473488642793
H           1.10597400362253   -1.63589517528053    0.95671810573314
H           2.48135944188486   -2.11929760594935    0.08434371142557
