    26
        -50.47301022  Gyration_radius:  2.48572799286 Dipole_moment: 3.134
 S           1.07150641736004    1.71169289872549   -0.11814291367453
O           2.24542918742571    1.43420500970046    0.68720698875212
O          -0.17305183121520    1.56732733122421    0.61418596617289
O           1.07748556080096    0.96368985050863   -1.36716325703154
O           1.15310580588699    3.24425697014226   -0.51485295762214
H           2.03838220260436    3.33421091877422   -0.85222057221755
H           1.21822530538555   -0.69876645308420   -1.19134202683003
O          -2.99572177509764   -0.51297937486556   -1.28525457371831
H          -3.76164291236806   -0.16879741696993   -0.82302113971418
O           1.22153520103418   -1.62671413370922   -0.86853460097845
H           1.71691332366502   -1.59503489231848   -0.03289787985354
O          -0.46838806947418   -0.53963545079933    2.20289019824946
H          -0.44911987050753    0.33477016640137    1.76013565351546
O          -1.50316801994977    1.61167524148613   -1.66977262633529
H          -0.65540461435206    1.35371750520713   -2.05984651351198
H          -2.46223326778306    0.28585606550484   -1.54623255234337
H          -1.25464525320970    1.78711314834855   -0.74428136082760
O           2.18932236954321   -0.97074799852160    1.63257711007124
H           2.25019753040924   -0.03494977858970    1.30351419659256
H           0.46748305621990   -0.79727047926360    2.25905616239521
H           2.99669016083583   -1.12867207533975    2.12454305772398
N          -1.20313034566435   -1.93172445943311    0.09626410819769
H          -1.93368130881094   -1.41529643848298   -0.45971559761353
H          -1.48585257502233   -2.89335441221457    0.24825205188295
H          -0.26636606130506   -1.88983865626566   -0.41514936331176
H          -1.03387021678963   -1.42473308621153    1.01980244197921
