    26
        -50.45568724  Gyration_radius:  2.56703713255 Dipole_moment: 1.982
 S          -0.97983302243928   -0.05823292478110    0.22868727467064
O          -0.20860755190272   -0.25024859734068   -1.02561363315674
O          -0.87501259130111   -1.23249472355207    1.07490134842202
O          -0.54292992204293    1.15183857990636    0.90006674383366
O          -2.45861995595832    0.08465275325133   -0.18322486128824
O           3.04390307036538   -0.93350597841152    0.71273845212405
H           3.52164185935449   -0.15920151433613    0.41039946869504
O           0.02047197116305   -3.54237690437696    0.33561140284604
H          -0.68509915308440   -4.00982585345050   -0.11525542870482
H          -0.39054816117035   -2.72971311905399    0.73050501281557
O           1.25914893437584   -0.05292386917543    2.39864933687324
H           0.64674440080702    0.53371866663176    1.90530206907586
H           0.70508736777832   -0.79562684712576    2.65775349875651
H           2.41321886372739   -0.61500746308424    1.41994817951698
O           1.52206636435377   -1.99885155361302   -1.00755723180178
H           1.02637132394940   -2.75243674569825   -0.51938383512082
H           0.77710230745955   -1.22802247558371   -1.08050209433866
H           2.21360089085996   -1.62006907028958   -0.33745710730229
O          -1.90284225135487    1.55467642768657   -2.18882394719382
H          -2.42207677658133    0.68715134091702   -0.99059033337587
H          -1.65315058070101    2.40232102761491   -1.73686029150555
H          -1.09086299797447    1.03280487983361   -2.23594862102423
N          -1.07662822789760    3.52745368176100   -0.57626074522469
H          -0.25923147211541    4.10454548521970   -0.72901632205978
H          -0.82172616973478    2.79466377499871    0.08834135790941
H          -1.78218852996564    4.10471103210994   -0.13640968345339
