    26
        -50.44166765  Gyration_radius:  2.8220031246 Dipole_moment: 5.900
 S           3.17872659100220    0.54193034409332    0.13907114762031
O           2.34960542997662    1.70551685773241   -0.11054803881589
O           4.44607132877624    0.78740476350207    0.74246812522401
O           3.50795535369458   -0.08858649587325   -1.31254683259854
O           2.37600556779574   -0.51872226483584    0.78180579734949
H           1.53383083340786   -0.96548997032799   -0.57728676118247
H           4.44075738439986    0.09095002061189   -1.34933160252788
O           0.89125631142047   -1.11523533796907   -1.30828254244715
H           1.43195518177979   -1.21052622456548   -2.09387138815365
O           0.04256736093125   -0.14454475859849    1.61592432401833
H           1.04994966577916   -0.29799280865222    1.46319960124905
O          -3.26639140444473   -1.12150817962664   -0.22553781689353
H          -4.03405740799690   -1.42807909893159    0.25845734476427
O          -0.14640353360726    1.27888612094432   -0.46229391056179
H           0.78947923042379    1.61632522128652   -0.37315899707076
H          -0.05951312839111    0.52522559545993   -1.07181421814344
H          -0.16674871362677    0.54000389680942    0.86006153444404
O          -0.93762788532858   -2.13377683574762    0.47937574969097
H          -0.40936161529381   -1.05105063995835    1.25273557918333
H          -1.83772099783802   -1.84353478486730    0.18301695691721
H          -0.36633151137982   -2.08248283276090   -0.30512383161239
N          -2.97667271057622    1.50057751102404    0.33066963766588
H          -3.64062289426230    2.11260289601570   -0.12681403914303
H          -3.18516780561073   -0.14735038526484   -0.04734022572991
H          -2.05802523679865    1.70186193903245   -0.05534115684507
H          -2.95351541418768    1.74759545145486    1.31250555360935
