    26
        -50.44166770  Gyration_radius:  2.82216371317 Dipole_moment: 5.901
 S           2.08684438092866    1.15855556645699    2.17321589198943
O           3.16474068256678    1.13448223042856    3.10487495270485
O           2.44375976584549    1.36406779824250    0.78255303396935
O           1.18352288022006    2.43165163895870    2.59278171486901
O           1.13765173688890    0.03214088375023    2.28722324118336
H          -0.18455141931965    0.84170009840325    1.69457901290101
H           1.77887953260380    2.84628607804102    3.20703719783339
O          -2.60727227309820   -1.25392641894208   -1.90094900559010
H          -3.03199706406933   -2.04241257212539   -2.24067419150171
O           0.57489141462903   -1.47426604255334    0.36523940782396
H           0.90905049563376   -1.00825057461189    1.22149718282001
O          -0.92417845869498    1.23009953734161    1.17323852834861
H          -1.04300183990297    2.10978619880697    1.53467465378099
O          -1.89524000605389   -1.28872196271643    0.63611238460035
H          -2.25644775444024   -1.27848526116743   -0.28670219833883
H          -0.49028294258748   -1.53085666341878    0.50770365924875
H          -1.88582361587277   -0.36298684840331    0.93188861369791
O           0.70645179088536    0.67200558936849   -0.96088595211909
H          -0.06918773502821    1.06959055870106   -0.52809267932096
H           1.47493077797894    1.01287032485869   -0.42164388293124
H           0.67755805730176   -0.70469311791947   -0.32793193605609
N          -0.24865192555510   -1.01109361043809   -3.18408031493870
H          -1.75627487787177   -1.14741503928601   -2.40270801079220
H          -0.31187708701914   -0.68984189816131   -4.14193029064457
H           0.21532700888801   -0.28334804781071   -2.64687247428752
H           0.35117846507371   -1.82693847585157   -3.17014853923455
