    26
        -50.44166772  Gyration_radius:  2.82161200977 Dipole_moment: 5.897
 S           0.51768547599293    2.43309226775058   -2.05600428776773
O           1.25265491144743    3.45007761312783   -2.73133314129123
O           0.59636712391462    1.09997905027743   -2.62171870993198
O          -1.03317320289103    2.87392686232507   -2.17140611419746
O           0.73270595951156    2.37268822162510   -0.59550962852951
H          -0.75113363606090    1.73292560099246   -0.21613021524319
H          -0.94743559042544    3.57001074772596   -2.81312734015793
O          -0.79505339306394   -2.21760172258120    2.53460218751130
H          -0.49133831990711   -2.65650030661447    3.32996574047458
O           1.48336426668499    0.29406676363834    0.58553787260322
H           1.35744447570558    1.21096494761666    0.13206609601620
O          -1.53322697860864    1.18166002053342    0.01649304110723
H          -2.27004841143215    1.60128396985630   -0.43028988988285
O          -0.03876350602462   -0.83998572617015   -1.08191824537799
H           0.97394986655745   -0.32359303245849   -0.07932701390570
H          -0.85020743630788   -0.44737449890253   -0.71535736197375
H           0.21572925390352   -0.20961494706631   -1.81349493765118
O          -0.29267660062637    0.36137161824298    2.33208282221477
H          -0.54153153547398   -0.58593301618516    2.48358637033359
H           0.81977791867664    0.33773603852046    1.43171208641933
H          -0.97874122739255    0.73016200057779    1.75078994534436
N           0.59693473703013   -3.26082835596928    0.47463316322852
H           0.35623168487836   -2.63227200211250   -0.28723806490291
H           1.60516930569951   -3.25002260168751    0.56905168117802
H          -0.30694682463878   -2.63122545442077    1.77442290332363
H           0.32226169285960   -4.19499404865774    0.19791105102949
