    26
        -50.46147036  Gyration_radius:  2.59064014867 Dipole_moment: 4.230
 S          -0.40615557694505   -0.46276356106255   -0.42827425098258
O          -1.82845239504217   -0.37286293617642   -0.65407891756971
O          -0.15553863137277   -1.09774428429724    0.98884868667777
O           0.27771403683037   -1.38740226459469   -1.34893577724948
O           0.27281209086433    0.82561527701413   -0.42333056151286
O          -2.58165296060745    1.72889203925873    2.49323592086252
H          -3.40560244972094    2.16621448479921    2.71294885332363
O           2.05170697931378   -0.15203517037756   -2.96764249918282
H           1.34790603169027   -0.64177572208454   -2.49706073102964
H           1.60139737539895    0.46804709346931   -3.54310445999276
O          -2.51514994431456   -0.87683328704524    1.89696922115686
H          -1.04306268265192   -1.06012578385767    1.47520907955311
H          -2.56161402219794    0.03537481662969    2.26795445116965
H          -2.76327811277677   -0.79250855971347    0.96364358734442
O           2.88979618802417    0.69209810543121   -0.55774319271492
H           1.95319894812521    0.95403798741098   -0.39312181579223
H           2.75372511176727   -0.71276186823777   -0.07211706369488
H           2.90264075588944    0.54642280933175   -1.52589468930952
O          -1.99068106158043    2.23633194739107   -0.05529972374625
H          -2.34169811274327    2.03358880343165    1.58482541987410
H          -1.02621030984764    2.18053234493186   -0.12361649852855
H          -2.26828072083390    1.38148242786579   -0.42420273379665
N           2.34938560879030   -1.71697599199252    0.13138538722586
H           3.01850249929345   -2.46070871323984   -0.03934993785411
H           1.50418576758058   -1.75804376973871   -0.53516980172741
H           1.96440558707914   -1.75609620454423    1.07392207748578
