    26
        -50.46021512  Gyration_radius:  2.60093288596 Dipole_moment: 5.800
 S           0.87384381253227    1.75265984703575    1.02432558762875
O          -0.21845270442507    1.56013045029219    0.10030410452529
O           2.15143561822634    1.29611111907666    0.47852264029436
O           0.63036895818691    1.16621305267465    2.33351305885050
O           1.01385473929649    3.31062115286675    1.25059810703698
H           1.66347252827202    3.35743879494262    1.94466412489189
H           0.16383739204161   -0.34060580922232    2.22909098921618
O          -0.05252643738866   -1.30011494873810    2.06311768040100
H          -0.06939664666175   -1.72090592247299    2.92435395197319
O           1.03578022262119   -1.49115879269903   -2.39310001874583
H           1.67213958190310   -1.20951655623985   -3.05214009786737
O          -3.07329292056153   -0.57348385987125   -1.53551244069494
H          -3.82212895894688   -0.01164929628963   -1.73932733124363
O          -0.69091447213689    0.41248101518869   -2.33677560620653
H           0.30515902366135   -0.79295588230348   -2.41635220739364
H          -1.57501643855926    0.01807225037972   -2.17154429875818
H          -0.49033184358246    0.93009790294214   -1.53823953052656
O          -2.29314906113923    0.05959160182942    0.94191722159459
H          -1.77040044499115   -0.64033929915444    1.35237765106253
H          -1.63907490040377    0.73608334996231    0.68527171759063
H          -2.86791683693828   -0.41590743926428   -0.58459363424069
N           1.81965721322034   -1.24124819766119    0.09124699841941
H           1.49698680922242   -1.40016463913564   -0.91994299287230
H           2.64909685974907   -1.79080712347863    0.29089500174984
H           2.02574215684869   -0.19679952166079    0.21452587515655
H           1.06122676995905   -1.47384322898783    0.76280346817295
