    26
        -50.45981087  Gyration_radius:  2.52875977116 Dipole_moment: 7.032
 S           0.12183026154621   -0.09529796440097    2.19483980301098
O          -0.95017480149581    0.34724056807161    1.33145401367601
O           1.14135324868722    0.93704484712593    2.38244802779471
O           0.72404047822742   -1.34720800745226    1.76755621708595
O          -0.51900279505621   -0.36476644086028    3.61153706762995
H           0.19283300237266   -0.78537162591911    4.08268028575612
H           1.56293375338166   -1.35183971998811    0.42696456933651
O           2.11763258056327   -1.25993735321849   -0.39735494856486
H           2.71773427336554   -2.00700318504214   -0.39272782358078
O          -0.44564083736992    1.50215203388942   -1.01163154199810
H          -0.79282430895022    1.21445593017015   -0.14120926208750
O          -2.12707842125799   -1.43743566013044   -0.34911639555681
H          -1.76611284108352   -0.93443231955095    0.40095711833890
O          -0.14548711398087   -0.88637521529468   -2.02825853937652
H          -0.34888216681953    0.65049997859239   -1.52769862668448
H           0.67761150175186   -1.17783872777361   -1.61190132476400
H          -0.87034562777589   -1.27917959932589   -1.48124034334823
O          -3.04632011306904    0.63418646112039   -1.98426419400842
H          -2.69566033306330    0.24254022545725   -2.78780681987377
H          -2.76099424902467   -0.83705186702601   -0.77630312329633
H          -2.38153268308618    1.26675695543618   -1.68158338592210
N           1.95146693720054    1.41584082404116   -0.01924715484354
H           2.65145758091067    2.13190719945455   -0.17782530564787
H           2.27409171058305    0.47817437862648   -0.32125482512895
H           1.69562499761043    1.32328427018876    1.01848495223147
H           1.02144595589147    1.61965404380427   -0.52749847020684
