    26
        -50.46654166  Gyration_radius:  2.46931438654 Dipole_moment: 5.995
 S           0.03003521212157    0.56920170791602   -0.98687471153572
O          -0.80561164911144    1.37708533402841   -0.12285157836404
O           0.33760812103748    1.33966703490640   -2.28876320661597
O           1.29906520886064    0.21929670737464   -0.34471041600050
O          -0.66340169733144   -0.65164193284083   -1.42298130014295
O           1.45418871929959    2.51637381887736    0.96768266150036
H           1.55219927189551    1.61563704356619    0.59875457786057
H           0.51046911410064    2.59501033126754    1.14474094100595
O          -2.69409917000342   -1.60387658642908    0.02403606320638
H          -3.55868173974220   -1.22125743720336   -0.13126924694278
H          -2.07863941346990   -1.14041964724888   -0.58341260863909
O           1.09059216372616   -1.48411783311178    1.66852973986164
H           0.45388704203026   -2.39878678307428    0.71969588927044
H           1.41997139458843   -0.83461111197541    1.01013761286629
O          -1.20931257837000   -0.23936926215908    1.95043470440301
H          -1.08481985496505    0.47310701123418    1.29090377130299
H          -1.88378994298548   -0.81272264370465    1.55618462356805
H           0.29320956757212   -1.03443834785551    2.04586892278334
O           1.63408147174851    3.43547619937760   -1.48819430838848
H           1.61041680163463    3.26621513807961   -0.51075732956591
H           2.55364359613161    3.36091001288219   -1.75199580017474
H           0.78697244654850    2.19104529813627   -2.02797332325887
N          -0.11685382559822   -2.83335076649583   -0.12782235799541
H           0.35445818070092   -3.61540503120199   -0.56815235496148
H          -0.22629688740200   -2.00641201676950   -0.79377705332295
H          -1.05929154300133   -3.08261622757264    0.17256607825728
