    26
        -50.44493627  Gyration_radius:  2.70465286865 Dipole_moment: 6.283
 S           1.74580133143347    2.33751588715608    0.52529864706357
O           2.34949409300909    1.09001210393977    0.04861855186038
O           2.14586057381134    3.50951487138321   -0.18300044082650
O           2.31289889815495    2.51518862761718    2.01954001377028
O           0.30135576978428    2.16232788728995    0.67905354135120
H           0.43748946294134    1.01203211868206    1.87165530643389
H           2.81216687638053    3.31947687879652    1.92510143193369
O           0.67657088735934    0.27848154590136    2.47580028451134
H           1.55814728648719    0.49945736422926    2.78294546477755
O           0.91629450805099   -0.62485811547709   -1.01664209069879
H           1.59772510488989    0.07510313430412   -0.62082615732674
O          -2.36218588260215   -1.40459181267636    0.13588213924286
H          -3.20312812497657   -1.78778585810169    0.38564778528966
O          -1.15213586875595    0.83952454451699   -1.03776061814197
H           0.06012136180686   -0.05916499807712   -1.16288710877224
H          -1.76383897200390    0.33716497224756   -0.47722821923974
H          -0.72324393213237    1.50031406156638   -0.44454951176522
O           0.17102286162280   -1.85422826810419    1.02299271900253
H           0.39741909564321   -1.15811251205068    1.68995892690972
H          -0.79582300239671   -1.79242194396592    0.90286839775933
H           0.67166520708675   -1.24386477938237   -0.17826618646208
N          -1.60681072181512   -1.96200720070969   -2.38734091147216
H          -2.13744485446743   -2.56226110973422   -3.00610881728532
H          -0.64871876784777   -2.29170378507793   -2.37823619581028
H          -1.60216745052237   -1.02860582028806   -2.78343288099077
H          -2.15853573094843   -1.70650779399586   -0.78908408111425
