    26
        -50.46379647  Gyration_radius:  2.41554741407 Dipole_moment: 9.066
 S          -0.97166280037969   -0.46284292586412   -1.63487138666859
O          -1.81317134045706   -1.43538137769862   -2.25959896397165
O           0.37407368316498   -1.01784475627985   -1.33148015430275
O          -1.58687133160324   -0.11394302654216   -0.21716491791259
O          -0.82690954795574    0.82166446906446   -2.29118885742990
H          -0.19009596308316    1.96048020554615   -1.45451062859485
H          -1.95260508706132   -1.00626934631737    0.07532739369140
O           1.20713292946690    0.08815425973795    2.19601095203991
H           1.46905798678732    0.18883249524512    3.11173389148941
O           0.31919440051496    2.65076457376610   -0.92678953649953
H           0.28911354110246    3.44791957229152   -1.45789638188862
O          -2.21397205296889   -2.53589356743003    0.18657563060477
H          -2.18398174119929   -2.60472736474068   -0.78153854572155
O           0.39641635041732   -2.46303126947607    0.90954781205370
H           0.60187261298914   -1.75322618855877    1.52990083237436
H           0.48508721491690   -2.06311023980384    0.02336371131244
H          -1.33681458624425   -2.80451932184917    0.52957547861000
O          -0.68595731603225    1.76716037358703    1.51550370075753
H          -0.34826429216117    2.34085087028750    0.81053456299602
H          -1.25698170569410    1.13626859279439    1.04659488962520
H           0.44105582850536    0.70907496040214    2.04922477674725
N           1.99639817293277    0.64654238069223   -0.32016837751737
H           1.92575221179266    0.44179978626100    0.69776547019021
H           1.34010534460475   -0.08579497558601   -0.81983129447403
H           1.57301089217033    1.57382320626325   -0.52852840970624
H           2.94901659547393    0.57324862420388   -0.65809167781228
