    26
        -50.45490120  Gyration_radius:  2.54697143604 Dipole_moment: 5.593
 S           1.35761745204498    1.75942109946607    0.79877482008400
O           0.95601393240673    2.83411444070009   -0.07158569004123
O           2.46218981063159    0.95825373890248    0.25351358567853
O           0.28352321862687    0.90124943597834    1.25252977782872
O           1.94721360719001    2.45962483180218    2.10650531130251
H           2.20517174084024    3.31347035043040    1.77352679822508
H           0.00222394244628   -0.59666536682469    1.67275441347378
O          -0.04265163135591   -1.57777688781501    1.83713303758894
H          -0.16797730177268   -1.68040748551322    2.78121207670606
O          -0.11454510397534   -0.96202306157758   -2.06315447747011
H           0.00205307551833   -0.95943871712942   -3.01384876175487
O          -3.03235956019311    0.69401295382816   -0.07723156273668
H          -3.81926629380513    0.69546611829147   -0.62418872658775
O          -0.82048745241807    1.41933659248102   -1.48264711018926
H          -0.18963778222637    1.98452440036940   -0.99820025399528
H          -0.37453154429731   -0.00591263297606   -1.82141766427962
H          -1.59537204498528    1.31126833347098   -0.89066109897484
O          -2.01031987850757   -1.81283226435482   -0.14188397863280
H          -1.41907803279797   -1.82385327873505    0.62661607011520
H          -2.74936766234105   -0.24322375834001   -0.00388710157324
H          -1.44017291135195   -1.65342319697757   -0.90746531533567
N           1.72775466334704   -1.43689215755079   -0.20482898106376
H           1.06135322055143   -1.33537187061545   -1.01318408468309
H           2.09814066861285   -0.42981276103585    0.00285692758876
H           1.18576296360732   -1.73832932729903    0.62425411874916
H           2.48674889420363   -2.07477953898045   -0.41549211002880
