    26
        -50.45490207  Gyration_radius:  2.54741370532 Dipole_moment: 5.620
 S           1.16746417767148    1.91999806833526    0.72970047648322
O           1.03614331357721    2.77286943500391   -0.42321363391807
O           2.34799527013921    1.04678480643518    0.66800381860853
O          -0.01397735117953    1.15435396227329    1.06645986999320
O           1.42795359480469    2.89716653542360    1.96454695762542
H           1.81682642045490    3.65409606411914    1.53755998719243
H          -0.44328149135222   -0.22725025171810    1.70550974387392
O          -0.56181064105396   -1.15218909377615    2.05439930386762
H          -0.93392048741181   -1.05647517981489    2.93180105059701
O           0.38173193587606   -1.37771982431317   -1.77376269616206
H           0.73860194283014   -1.57294886480897   -2.64089000699809
O          -2.89139233330240    0.59010803128197   -0.99015047384736
H          -3.51298886268443    0.45821053750734   -1.70751369305500
O          -0.37429611493540    1.05420964710737   -1.90757586359046
H           0.13200446990650    1.72300210622638   -1.40893063523045
H           0.09828926853477   -0.39856163580002   -1.81372868364469
H          -1.27653198187533    1.05602945957784   -1.52213127109785
O          -1.96555620394550   -1.84881105780873   -0.26522356984081
H          -1.58895193006624   -1.68206895600708    0.61276627873246
H          -2.66591702939756   -0.30400617827793   -0.65293350585690
H          -1.21536502369314   -1.84147057857143   -0.87656122529460
N           1.67436190572663   -1.40642715117915    0.55017001763227
H           1.23851183329584   -1.49269680782560   -0.40409547473245
H           2.01309020071153   -0.37031981103727    0.62950514437715
H           0.93046045585922   -1.53838264009912    1.25784584375418
H           2.44055466151092   -2.05750063225119    0.67844223053084
