    26
        -50.46313978  Gyration_radius:  2.55696305657 Dipole_moment: 3.436
 S           0.40109008492788    1.84095058509887    1.22385699424541
O           1.35421160378634    1.88185635767921    0.14769006135185
O           0.30072942513644    0.48286564901309    1.77574769481340
O          -0.91069091206244    2.37759037888388    0.90912708918676
O           0.95771732154523    2.75047099485272    2.39491293240834
H           0.15319960597562    2.98002040513882    2.84775401817073
H          -1.62661543243428    1.48360000481689   -0.19864516479949
O          -0.46432972263684   -3.14213953169700    0.61590531613251
H          -0.90549786865808   -3.60881748010949   -0.09481527595624
O           1.56192157516628   -0.91823124630649   -2.28907945455315
H           1.02540442725140   -1.47903128450587   -2.85102208238745
O          -2.01621967927683    0.88296074486840   -0.88831263684994
H          -2.83030607270793    1.30543998912834   -1.16873133959410
O           0.34488560267219    1.37828725745841   -2.26400246264465
H           0.79371263252663    1.73396563470731   -1.47142606479431
H           1.17858545956094    0.00182339093849   -2.37364819730582
H          -0.55729252737296    1.17523725806132   -1.96523139519249
O          -1.86856385841528   -0.98850304203511    1.15388450814453
H          -1.08467003566231   -2.41860730723855    0.90124604691839
H          -1.17200818763794   -0.45123482354532    1.57541484717635
H          -2.09228030901894   -0.49350067148503    0.34869989884989
N           1.50765401496088   -1.35769993792638    0.33406715335365
H           1.57555036108260   -1.12534413829129   -0.69626753441037
H           1.10145811381568   -0.54428976833770    0.87940941857323
H           0.84578802248851   -2.16664943496944    0.45239443270086
H           2.42656633499446   -1.58102001417870    0.70107120645621
