    26
        -50.46365710  Gyration_radius:  2.44735539911 Dipole_moment: 8.568
 S           1.18002224188843    0.80363832941463    1.97021288448392
O           1.71130837765190    1.01257065507069    0.62863802305784
O           1.62938656477778    1.73087173456664    2.95447518622025
O           1.74014966212519   -0.63551339520465    2.43015972052291
O          -0.26979275570194    0.59492032245492    1.91404839946965
H          -0.42985092619428   -0.88611925721802    1.43805108599663
H           2.45834371036827   -0.34388742942177    2.97912259810340
O          -0.56503737474044   -1.80086477452291    1.05929538950439
H          -0.46600449684776   -2.40002608918424    1.79987591798311
O           0.13239710992582   -0.44891486257642   -2.63072517150317
H           0.46990632949249   -0.78848065703923   -3.45947904560371
O          -1.84481091055547    1.66995851814581    0.07918045168527
H          -1.36562605154309    1.42114589951128    0.89864240215356
O           0.29481027660178    2.12041503968469   -1.36861784516237
H          -1.13660027820330    2.05437466849756   -0.50127849314449
H           0.91487043103703    1.86194729990202   -0.65873357810287
H           0.30895297248286    1.38817147236775   -2.00028797527004
O           1.55955048221865   -1.26928614947103   -0.64100631680554
H           1.76804995975396   -0.42184081319044   -0.18508768652083
H           0.93708496814635   -1.71129934232270   -0.04223423563494
H           0.75696100316825   -0.77856879977154   -1.91215432814691
N          -1.97956901215401   -0.66026640829585   -0.96675098035382
H          -2.89025302370089   -0.97345910888200   -1.28151582206691
H          -1.29249557293685   -0.62840249159665   -1.74902800772512
H          -2.02036905082991    0.36504012227617   -0.52897403812595
H          -1.60138465622894   -1.27612448319672   -0.22582854501052
