    26
        -50.46365726  Gyration_radius:  2.44735076309 Dipole_moment: 8.570
 S          -1.32975268751233   -0.89803836105745   -1.82929063927508
O          -1.82060598355513   -1.86145279606312   -2.75734890520757
O          -1.69949199269980   -1.12848138124717   -0.43784506325735
O          -2.02895097624117    0.49751874625797   -2.22968116109519
O           0.10087870530581   -0.59505561646511   -1.92977476157205
H           0.21328706943491    0.89808126804632   -1.47806661135357
H          -2.78275995293255    0.15469039824413   -2.69496188662734
O           0.32708905233153    1.82338121339011   -1.11841362863799
H           0.10628721655242    2.40737513111651   -1.84471940572504
O           0.12268396136589    0.46435961618076    2.62818153760406
H          -0.14451483382917    0.79010108616795    3.48753980999057
O           1.93265461618080   -1.54628488451955   -0.27381765341641
H           1.35261482854874   -1.33739604778774   -1.03740504071333
O          -1.56217357754892    1.16987111627766    0.80298706846231
H          -0.59636091806480    0.74527883427745    1.98060493750999
H          -1.03835471368126    1.64603533368096    0.13953442640899
H          -1.76219509029996    0.30629247038008    0.37428126324727
O          -0.00498008966072   -2.12160627611314    1.39696463754817
H          -0.71366153337781   -1.91122541785222    0.75766215533351
H           1.31791644657877   -1.97053197217847    0.38065902967671
H           0.00049573931812   -1.38590421886496    2.02474258712850
N           2.02462352469305    0.79783410124286    0.74531111607618
H           1.52898396145521    1.38052160928574    0.04816013012474
H           2.08588364790180   -0.22675158430499    0.30818550732816
H           2.94111365178178    1.17305413326663    0.95923118415742
H           1.42928990796204    0.72833347863919    1.59727937628795
