    26
        -50.46365704  Gyration_radius:  2.44739664461 Dipole_moment: 8.571
 S           1.76360644496087    1.64539813289297    0.32108813434269
O           1.33871051694646    0.76594622356012    1.40358608363366
O           3.08861125685062    2.15682834909916    0.43638951359117
O           0.78716315755953    2.92457524159231    0.40416218684371
O           1.42602359196730    1.05175826394168   -0.97595206392498
H          -0.10686427482894    1.31752455774137   -1.13593519203497
H           1.37182551246229    3.52586153796313    0.85006188421697
O          -1.09813932035636    1.40115770719545   -1.23024078661792
H          -1.24874855822678    2.29064821394166   -1.55183320539694
O          -1.66047649302916   -1.72643140186665    1.18457743093711
H          -2.32996051429220   -2.04394531428001    1.79041007106340
O           1.32457572841689   -1.55451330209392   -1.42405300246331
H           1.55062649033576   -0.60021117566567   -1.38885314088830
O           1.20137434667834   -1.90795743840074    1.17156025139603
H           0.25887360896037   -2.03589087339072    1.34665882135068
H           1.43904186243519   -1.85930406408803   -0.48585554055682
H           1.37802960463156   -0.96915788658432    1.37810631287373
O          -1.27558293027793    0.81079654550858    1.47298804396529
H          -1.54095476884305   -0.74542057895995    1.38072947666821
H          -0.29865129390860    0.85032731937089    1.58936233994121
H          -1.42328230462093    1.19545250484334    0.59463202648493
N          -1.22139059612684   -1.30917647895398   -1.44338784036361
H          -1.72817317302856   -1.80833681695697   -2.16487042903369
H          -0.12118370639827   -1.47915421151806   -1.51413128412219
H          -1.36139258671495   -0.28648109132864   -1.51926091878311
H          -1.51366159155290   -1.61029396356420   -0.48993917312604
