    26
        -50.45738812  Gyration_radius:  2.43811210655 Dipole_moment: 3.235
 S           0.44925579487585   -0.33981036985468   -2.12997430015234
O          -0.90088274157567   -0.54652287918809   -2.56908924167130
O           0.95761504637931   -1.31445270498787   -1.18747237658018
O           0.64614554607988    1.02990981174782   -1.61603375478913
O           1.36722418680555   -0.44341075651069   -3.42021451013610
H           0.74927161442230   -0.25407785618081   -4.11855229338201
H          -0.89171367629951    1.28388265441246   -1.01321734618188
O           1.80080995063951    1.55216463968859    0.55654535319558
H           1.42891047429790    1.40880124678260   -0.38952733984628
O          -0.26907170311004   -0.84702607468204    2.47273010874768
H          -0.58817406616131   -1.36045146095942    3.21477987547866
O          -1.72701229914773    1.41095015237862   -0.51586752257022
H          -2.39348344049374    1.60594177204665   -1.17617023075083
O           2.10119179007601   -0.85011739551228    1.14279500481322
H           1.34405816396435   -0.97552087077679    1.75007829105754
H           1.79376023570109   -1.17996729893230    0.26812626926855
H           2.06954137935802    0.56546715058168    0.86426587886378
O          -0.36619647867901    1.78513016417176    1.82410620639578
H           0.95243288665130    1.77708432261212    1.13102775505635
H          -1.00803405705461    1.78206244281567    1.09237422746177
H          -0.40239261211806    0.88973439628108    2.21669362361047
N          -1.49997089710215   -1.44960347919179    0.26076689719141
H          -2.17572562859958   -2.18881456949353    0.11530474577797
H          -0.79481834101690   -1.14226128897511    1.65364768647485
H          -0.72023096220930   -1.61874208035013   -0.37170252639309
H          -1.92251016568240   -0.58034964792279   -0.05542049093971
