    26
        -50.46819180  Gyration_radius:  2.44284959566 Dipole_moment: 3.150
 S          -0.56227120573354    1.63190550494198   -0.78421300832180
O          -1.40264191125767    0.56137929181685   -0.28902403974049
O           0.54682188718620    1.11534267332202   -1.57466401282119
O          -0.14615930111065    2.54761113721610    0.26153040180319
O          -1.43366813813714    2.50741803057602   -1.77768799918742
H          -1.68794987212958    3.21403041400258   -1.19531073308067
H           0.74199194039812    1.94858230145228    1.47804396052259
O          -1.78010153370062   -1.95263690379260    0.77319981650518
H          -2.03302110015711   -1.24241031280667    0.16392372212476
O           0.04721195490577   -1.16501798565846   -2.76172067437908
H           0.12211669491120   -0.26880055734215   -2.35475606604681
O           1.28806480062549    1.48371248377115    2.16114562594293
H           1.84217004326420    2.15496291370027    2.56208477165251
O           2.03949505847674   -0.21671554258855    0.19080451891916
H           1.89107956597205    0.27560467924545    1.01983482588506
H           1.63538611626795    0.33805784154277   -0.50698375767998
H           0.60912349208811   -1.14398164759679   -3.53820628410514
O          -1.15142570131042    0.10461535398606    2.38257060803528
H          -0.28967287716626    0.45337163251780    2.64054563317090
H          -1.31768785502067    0.47761975917255    1.49883999443839
H          -1.61395030852394   -1.46796549677288    1.60640224448209
N           0.54315474994986   -2.30171207865556   -0.38438613696100
H           1.19450035356394   -1.54186751506789   -0.02319052513796
H          -0.38702721448402   -2.24944235176348    0.14621099805964
H           0.34047986227276   -2.04257703838554   -1.37905007853055
H           0.96398050873892   -3.22108655656850   -0.31594379562978
