    26
        -50.46820633  Gyration_radius:  2.44272846233 Dipole_moment: 3.053
 S           0.78233273752294    1.73180871248502    0.00311759773968
O          -0.04340409859981    1.59640505749888   -1.18788706876946
O           1.45367992582029    0.49013394732936    0.33221039091363
O           0.07441253120559    2.29619686730272    1.13611849203767
O           1.90031115493989    2.79049210243778   -0.37093212092116
H           2.11704293601403    3.12009679637330    0.49354724977674
H          -1.15604974975612    1.45099545686833    1.76424073531922
O           1.45591324146461   -2.25191263125983    0.54564889525273
H           1.87296932690351   -1.40874818442591    0.30933905553549
O           0.77477502186546   -0.21912416684237   -2.88739782620020
H           0.58869895333885    0.50235605181860   -2.23971771880883
O          -1.88861316014810    0.85641452241212    2.06604542043001
H          -2.53382607699777    1.42302050337511    2.49150451296468
O          -2.01307004486372   -0.05959210491789   -0.47929420145363
H          -2.12409118360500    0.12938214471780    0.47136778797131
H           0.46345557173534    0.10722616328257   -3.73343755783372
H          -1.41349152834929    0.64209616083620   -0.80492165098819
O           0.37031561678713   -0.76035532014425    2.49923658828797
H          -0.52718752505374   -0.42115309553214    2.60095281977604
H           1.04687838838399   -2.04977098255506    1.41046121451635
H           0.80295052226321   -0.14466472930385    1.88202068204511
N          -0.41464509673493   -1.99384091079961   -1.26782127313076
H          -1.14504388845568   -1.32787249112830   -0.87437436525564
H           0.07570820055225   -1.45461456938239   -2.02067100620426
H           0.31519296664526   -2.20278190950405   -0.51036783095639
H          -0.83521474257212   -2.84219340108033   -1.62898880177165
