    26
        -50.44493670  Gyration_radius:  2.70411826336 Dipole_moment: 6.291
 S          -1.55900527927901    2.51903963753969    0.08382765517731
O          -0.95964628162512    1.72431711472949    1.15637610505790
O          -1.26460343802693    3.91451442362750    0.12233337016953
O          -3.14755376715240    2.40136091993319    0.30494352848887
O          -1.31873337189251    1.87065411545342   -1.20827574956021
H          -3.22060879526588    0.12695895572209    0.10772311562546
H          -3.39311121657747    3.32034584058123    0.32271183571536
O           1.20067633037441   -2.20200493640998    1.12946850153665
H           1.44337710124865   -2.95460865736284    1.66894289154263
O           0.48936897898227    0.19110470935088   -1.40849199038280
H          -0.26244825460903    0.92950229544488   -1.41586337259048
O          -2.50085794218488   -0.32076412019430    0.55699530405652
H          -1.93717683383949    0.40453089167718    0.89820520783357
O           1.38007033553467    0.59082658347031    0.92958198710909
H           1.25402611503523   -0.27561386133560    1.34694570001756
H           0.98110638129324    0.36878873020685   -0.51311190132594
H           0.58654518240614    1.12458562760614    1.17035955755333
O          -0.77335320222381   -1.84489552702580   -0.71018112961020
H          -0.19853378714780   -2.14819504566760    0.01815896449171
H          -1.53399344603634   -1.38730657158581   -0.27095917573597
H          -0.04823332052035   -0.71667961257730   -1.22767098594591
N           3.05171557667825   -1.52167624427373   -0.70280666479832
H           2.59589339850521   -1.40848398707133   -1.60063277017219
H           3.30358401682698   -0.59682004005570   -0.37241455700832
H           1.92602917578237   -2.06432874848051    0.46378006406890
H           3.90546633416892   -2.04515246314728   -0.84994549093950
