    26
        -50.45048646  Gyration_radius:  2.70099844957 Dipole_moment: 6.735
 S           1.31641090808415    0.67686170612764    2.61018525834460
O           0.39185477747790   -0.45444118886686    2.72532893649770
O           1.64108792226692    1.33561892415173    3.83240468978432
O           0.45265843348378    1.78052345129044    1.76535177044573
O           2.43175945716382    0.34685432365771    1.73842753655783
H           2.25951960239352    0.01289854901767    0.24077990936145
H           0.58686821738627    2.53641175966279    2.32762942800270
O           2.10096717441198   -0.34053985562651   -0.68574393679052
H           2.94873593966645   -0.67251414558639   -0.98432237654593
O           0.28905864139426    0.98312476487121   -2.30293878341986
H           1.05803578405155    0.67840953248506   -1.79699567293955
O          -2.40495198216246   -0.58309531346830   -0.26901191548662
H          -3.11753736119483   -0.59241509142105    0.37074329928183
O          -1.25015646726565   -1.30701311533777   -2.67602078478719
H          -1.79755914555275   -1.25474336291681   -3.46068320332441
H          -0.16580737631435    0.17168735861174   -2.58652767447157
H          -1.82838609258960   -1.11799985162763   -1.92010214504058
O          -1.35706379419944    1.75467529291678   -0.35990926164195
H          -2.07269517977603    0.37442052667163   -0.30562950829841
H          -0.76606359359132    1.83870486637361    0.40298563230859
H          -0.76288509799700    1.64686936090547   -1.14151798828932
N           0.00497359776446   -1.58424350940104    0.47786718677971
H           0.05340302910281   -2.59542247237271    0.53846342495308
H           0.17868881545015   -1.13321135440634    1.46192865196137
H           0.74901065073085   -1.22080059280031   -0.15423836099699
H          -0.93992687026827   -1.28062054289391    0.15154587772770
