    26
        -50.45048646  Gyration_radius:  2.70106498204 Dipole_moment: 6.735
 S           2.57902486064573    1.51533196580080    0.23964406746807
O           2.68145101405896    0.14840724100818    0.75828370729718
O           3.57761834812889    2.42512806359526    0.69599886601575
O           1.18835744807570    2.06417641128707    0.90506844887512
O           2.31696921489223    1.50803712438411   -1.19010397181688
H           1.03407149684398    0.91017992615286   -1.80721234332752
H           1.50698718631049    2.88961950217649    1.25526240239513
O          -0.94129554223628   -1.48980139113952    1.75835842236363
H          -0.63514140930016   -1.67310671636350    2.64707144679072
O           0.26533272869116    0.38683096869341   -2.18626082591843
H           0.41099260818813    0.36284490823180   -3.13297862926842
O          -2.21843148605303    0.65720046134890   -1.00004255304542
H          -1.40015358087547    0.74918503774877   -1.51207023432922
O          -1.33830945491997    1.02778309563529    1.48347362791894
H          -1.13880806864709   -0.49551600017229    1.72843910897800
H          -0.47520659812836    1.44567109570116    1.34653500867245
H          -1.77780296408554    1.03741258244987    0.59893258787796
O          -2.42437312001505   -2.07457166044883   -0.50203056564756
H          -2.02581902471738   -2.00800662111918    0.38012184106172
H          -3.33169485065226   -2.35425817671446   -0.37325654249990
H          -2.39170947799782   -0.29920832880591   -0.96833493523846
N           0.89724722625214   -1.37040179922481   -0.23505062674838
H           0.50306544612998   -0.85120379736040   -1.04759371707079
H           1.27099817031596   -2.26485493121869   -0.53297780743704
H           1.69309955824262   -0.74352764912161    0.18411338151242
H           0.17353025089176   -1.50335131252438    0.50660983515126
