    26
        -50.45447826  Gyration_radius:  2.54380506264 Dipole_moment: 4.578
 S           2.23926403109182    0.51348420583458    0.89144440383314
O           2.18406770947779   -0.26898707225206   -0.35952576913238
O           2.22892711833182   -0.34653697543872    2.04058948130798
O           1.19783756494123    1.52720167274362    0.90432088411987
O           3.62074165400472    1.29257258492694    0.85908128123453
H           3.48428177071897    2.00141007951106    0.23482876204978
H           0.01317120709403    0.73775921648070    1.63135436063774
O          -0.55408993118507    0.05519323482994    2.08568632609217
H          -0.17565775912485   -0.01346227314986    2.96577427926958
O          -1.53264112028685   -1.63806369552811   -1.36794284363622
H          -2.22129783445063   -2.16712763441081   -1.77087456058247
O          -1.58974409564811    2.23368923039606   -1.23492909021210
H          -1.94389714773187    2.61935454261537   -2.03708512576503
O           0.27606007570756    0.51210542401272   -2.11220798493295
H          -0.26640820371340   -0.28677167892285   -2.08656789625418
H          -0.78785027114454    1.73189513449083   -1.50359207723976
H           1.03441050840215    0.33840544208922   -1.52567209147069
O          -2.59550770345521    0.17665347043212    0.13313225046468
H          -2.08743242384233    0.19560776588546    0.95488839042444
H          -2.35153202970283    1.01120281897573   -0.32743264406068
H          -2.00178704677784   -0.93273516785975   -0.81864006687162
N           0.35943365625101   -1.89593842256575    0.49048993334850
H          -0.35922894064622   -2.02211164356733   -0.25982399735404
H           1.19259372292486   -1.36002012605954    0.08604756819257
H          -0.03129330184601   -1.24439603772234    1.22547054767901
H           0.66757878059900   -2.77038410574349    0.90118565885813
