    26
        -50.45154322  Gyration_radius:  2.59907549557 Dipole_moment: 5.995
 S          -0.01301071265102   -0.93267110910781    0.16577016227813
O           1.32922727405443   -0.68186098044412    0.73131767980656
O           0.07570792031779   -1.37656581890707   -1.20662974011368
O          -0.84197590802491    0.26998811304917    0.28873811926342
O          -0.65755617627506   -2.05762482871137    0.99076781391522
H          -0.62044430618631   -1.77756348151166    1.95245044038333
H          -0.15799299126215    1.41172774014643   -0.55235915802266
O           2.15108302928991   -0.91405312539409   -2.89270819137256
H           1.61315354812768   -1.54431900441958   -2.38561318830435
O          -0.81990582741364   -1.33024570006033    3.45681161958741
H          -1.36562949576608   -1.98241602682839    3.90138868969604
O           0.37762076127297    2.07809068276480   -1.07025654875641
H           0.31456381838588    2.90697377992563   -0.59259500991876
O           2.53192514706432    0.62636399961915   -0.93779496248436
H           2.50580386411770    0.00219189723172   -1.78463702620374
H           1.82508507415624    1.32248956832223   -1.08131039055339
H           2.07867170382524    0.00615054922686   -0.12540775477858
O          -0.14811479399742    0.38059531242602   -3.30213123282709
H          -0.12656839593788    1.21850310420041   -2.82705640981070
H           1.47377269701682   -0.39880054559140   -3.38468967720727
H          -0.37543359710809   -0.28828729648542   -2.63387918117769
N          -2.33932412001114    0.70893212424268    2.67062732090228
H          -2.19300984645434    1.64296866501475    3.03166375849962
H          -3.33412926940280    0.58289932903101    2.53183385360472
H          -1.89055030396918    0.65526656391188    1.75378085538864
H          -1.39296910316789   -0.52873350165924    3.30191814820061
