    26
        -50.44023236  Gyration_radius:  2.54346106892 Dipole_moment: 6.130
 S          -0.66651513924723   -2.11225354740749    1.19571112414632
O          -0.62874453147056   -0.70858867916547    1.50281258577397
O          -0.72026896242673   -3.01463665060069    2.28723136080153
O           0.56841535946190   -2.41377639266834    0.27762273186940
O          -1.83444940844739   -2.40343295490557    0.22562607445774
H          -1.63505535008809   -1.89110583838147   -0.61269815184058
H           1.25421030298347   -1.73130808120388    0.49361965043265
O           0.08115464755891    2.51407088907362   -0.65258327665832
H          -0.15719800039783    3.30812131288602   -1.13169619172405
O          -1.18866836462355   -1.14897769428534   -1.93497085521677
H          -1.00575472638842   -1.83773491690038   -2.57725155570927
O           2.34920138358919   -0.60323347199796    0.88411245187286
H           2.78124016871817   -0.96516767204797    1.65985048002565
O           1.07796384506525    0.16884500018363   -1.65618209854415
H           0.79794312328644    1.05420338814521   -1.35565951250179
H           1.64806438100460   -0.18436656479905   -0.96546711166678
H          -0.33052804994383   -0.65724027721764   -1.81766625241051
O           1.74233790494568    1.92354840302401    1.41605683839554
H           2.49870789618945    2.48371997852960    1.23071577920631
H           1.05141008239085    2.17204255388708    0.77308778352899
H           2.00212958250918    0.28438266586414    1.15948172232468
N          -2.05816301887602    1.13680590795591   -0.07570659999871
H          -0.78593477787364    2.04053022058096   -0.42016802438642
H          -2.89568093136127    1.50948002307344    0.35239786452193
H          -2.33422047284841    0.55998940661640   -0.86192287283134
H          -1.61159695370854    0.51608301176002    0.60364605613197
