    26
        -50.47250314  Gyration_radius:  2.48737005952 Dipole_moment: 2.880
 S           0.73698586404508    0.39618188551597   -2.10806802181772
O          -0.22829626238884   -0.55679196623183   -1.59467881395064
O           2.05435572107100    0.21348517871101   -1.51088377851937
O           0.28904454749218    1.77332246394634   -2.02697973128090
O           0.89570843354361    0.07443933727243   -3.65108815839599
H           1.41662761210687    0.81596756272918   -3.93960393844972
H          -0.13189611932696    2.20073870409748   -0.55086099742056
O          -0.44960771976611    2.43060612058481    0.36155121948701
H          -0.36695639026453    3.38230877176664    0.43748745139261
O          -0.12466053807071   -2.57029540922134    0.20100598275753
H          -0.26240201095435   -2.04563530122677   -0.60923382612169
O           0.35322061108313    0.62736447309916    2.25169702018427
H           0.10103477019930    1.34715679782113    1.64280408422535
O          -1.77483306463112   -1.06683682532531    1.81700429912693
H          -2.57472712277007   -1.30791686779564    2.28452073229696
H          -2.06037688199379   -0.50921801148539    1.03596038702942
H          -0.42479022495765    0.04256310365055    2.29392783151761
O          -2.30298870461426    0.44183837727169   -0.23960015323609
H          -1.92653210965294    1.30010254660271    0.00460845809739
H          -1.66057770576420    0.06595745926307   -0.87456117203351
H          -0.78325039313956   -2.22874881850310    0.83333727838618
N           1.87380545689333   -0.97345221573312    0.80314675298520
H           1.38914212763804   -0.29017931621456    1.45648178063254
H           1.18484997375292   -1.76479347738962    0.62208505580912
H           2.02794482962598   -0.49060333732302   -0.12914002756241
H           2.74917527089194   -1.30756123585161    1.18908030484245
