    26
        -50.47250304  Gyration_radius:  2.48715741139 Dipole_moment: 2.887
 S           1.04136438801771    1.99479456949784    0.28096692297013
O           0.86031666537413    1.16573942327792   -0.89518984394529
O           1.75314899208109    1.29020902786513    1.34039990246509
O          -0.18858507211818    2.59683345268836    0.75867681899003
O           1.97546040343967    3.19400020163096   -0.16517858455108
H           1.93062022034827    3.75540296902592    0.60115106557857
H          -1.32476407484624    1.51862812877583    1.05121806481976
O          -1.09192071996719   -1.72254658038542    1.19487710599040
H          -1.48532107649421   -0.83265597790318    1.27183666401394
O           1.54921882141678   -1.36020528087372   -1.55371778254645
H           1.43614294197990   -0.39174133204838   -1.55205530205743
O          -2.04047702071013    0.84013290727526    1.16792959979204
H          -2.64855729514147    1.20650497225484    1.81163905848194
O          -1.65468843835702    0.57678853254371   -1.57736466751936
H           0.65411913429074   -1.71465275889438   -1.70598742897845
H          -2.08459289412482    0.73326352083180   -0.72382969444597
H          -0.74572357270510    0.91853938759309   -1.45837167890363
O          -1.13764629654205   -1.97610169666100   -1.54733261703973
H          -1.37740401377774   -1.00783714966111   -1.63354713106723
H          -1.21185706569514   -1.97643079482803    0.26197687997551
H          -1.67062962881610   -2.44516675462144   -2.18952707789478
N           1.51019815502982   -1.29162395761181    1.07332770285743
H           2.13193154297192   -1.84792122716144    1.64849480845301
H           1.65687671081046   -0.25491368946309    1.24589938411215
H           1.67338482023967   -1.45009051732753    0.03325331721298
H           0.48938436328203   -1.51894935583102    1.26045450322374
