    26
        -50.46021227  Gyration_radius:  2.67665641059 Dipole_moment: 4.566
 S           1.07805916889595   -1.74148980644691   -1.23079239263445
O           1.67055931587689   -0.93748017234050   -2.26445036107578
O          -0.37520437092820   -1.70801698293261   -1.18319455651563
O           1.64130809394392   -1.42549209611659    0.09223587430196
O           1.44488393378618   -3.25767862053189   -1.51574597822972
H           0.62612328048942   -3.68368424189291   -1.28559798291511
H           2.42904681263733    0.10470840443564   -0.01933162002512
O           2.66563334553788    1.05420065128438    0.03330645359189
H           3.54171250724676    1.12277371853906   -0.34904526522334
O          -1.85921355943172   -0.01182950423844    3.01608845792961
H          -2.15563907641144   -0.89752841373204    3.23092016105851
O          -1.24942863469131    0.73261158160882   -0.88098986596290
H          -1.08728587994296   -0.21459906270384   -1.10543996231218
O           0.91525120288694    1.61536788046825   -2.05269828803535
H           1.17334840477600    0.73492390283375   -2.38910731274835
H          -0.59102888319611    1.22387891228443   -1.43723380929161
H           1.52902133421432    1.75879045760185   -1.31418303791344
O          -3.31401833828465    0.84977937069944    0.92064424136405
H          -3.75522074161755    1.69566209391783    0.83148102565710
H          -2.70335702220566    0.77736167479498    0.16515425592050
H          -2.49010930057178    0.32990456887115    2.34546279428781
N           0.17822582361418    0.38355434998750    1.30797560567443
H           0.70890743156636   -0.46651137564686    0.97921528846624
H          -0.44993801567936    0.18560371935499    2.11822768887160
H           0.85885933251005    1.11267087693482    1.50914908852858
H          -0.43049615497652    0.66251811294130    0.47794948724945
