    26
        -50.45490184  Gyration_radius:  2.54714823902 Dipole_moment: 5.614
 S           1.25549589813812    1.78736887982562    0.89682127460713
O           1.18806921902258    2.73649700335821   -0.18416637551466
O           2.38916410640818    0.85990163647095    0.77866675696650
O           0.03013659993016    1.06137092042457    1.15547838756786
O           1.54622042523013    2.64675464634848    2.20996329886961
H           1.96915478765610    3.41947814816755    1.84895019919581
H          -0.47799348868101   -0.34204522367517    1.67736160004162
O          -0.64842109320020   -1.28457727839489    1.94975092743377
H          -1.01821534088276   -1.24026430623757    2.83221279533537
O           0.33287782839981   -1.24938158889975   -1.87576461353285
H           0.68714886478007   -1.39531883489369   -2.75358336209287
O          -2.83982478829616    0.82720874576534   -0.97256807517874
H          -3.45700079970608    0.78528505184606   -1.70446497779659
O          -0.28739252878145    1.22377041261567   -1.82149840245375
H           0.24594768803806    1.82100523901046   -1.26367788102898
H           0.10418619201956   -0.25593497120390   -1.83958443938964
H          -1.19443841559234    1.24432976877598   -1.44809613419935
O          -2.05775562485837   -1.70857194814447   -0.43353591267466
H          -2.66759272219633   -0.10128790117620   -0.70391721368633
H          -1.29866058657745   -1.69325896534788   -1.03372132732761
H          -1.68660950921271   -1.63581555125224    0.45929942637714
N           1.59021869979399   -1.53596993331633    0.45025380636015
H           1.98163170461644   -0.52951673829103    0.61823345017679
H           2.31925086694217   -2.23533996181742    0.53263052953401
H           0.82989056040364   -1.68470909515055    1.13714208105607
H           1.16451144666091   -1.52097815478962   -0.51218580860796
