    26
        -50.46021191  Gyration_radius:  2.67670041212 Dipole_moment: 4.580
 S           1.64883188565803    1.08570814384328    1.34684688609722
O           0.67286159059761    0.21974491685008    1.98938885072977
O           1.22157647734325    2.44425533259463    1.15311760042797
O           2.12091501743495    0.48068386912399    0.09030504415692
O           2.89591852601562    1.09786222114950    2.32615649627375
H           2.71838039282551    0.32296195679707    2.84854141419280
H           1.53331679369137    1.44419344953509   -1.21370741459163
O          -0.49403550034157   -3.39323446904163   -0.89119790703722
H          -0.01284014583821   -3.97585409243485   -0.30173817934650
O          -1.56148529547100    0.15974074961367    0.64196231524297
H          -0.83793073797533    0.16348614858090    1.31307092547767
O           1.03107662323198    1.80301147450060   -1.97483862103112
H           1.47093513547251    2.62109447780025   -2.21078092422309
O          -2.57826440177642   -2.38226140665686    0.48138785613692
H          -1.31745385892812   -3.14668423349714   -0.41608480475342
H          -2.30459590262899   -1.46991547562399    0.68556856427051
H          -3.49080379464988   -2.33251534478808    0.19339909561470
O          -1.03474498160370    2.55274183323355   -0.27151221247161
H          -0.54954293075385    2.37855291907540   -1.09425511957118
H          -1.60742848769304    1.10291961688158    0.33779292971877
H          -0.32220978817236    2.71661458144034    0.37686823778552
N           0.16440073992607   -0.79611170804437   -1.10708877581707
H          -0.63840618606717   -0.43194424560945   -0.50690467172762
H           0.14891534837579   -0.35613229847472   -2.02444798789448
H           1.03835811066067   -0.47301045029788   -0.61305848700655
H           0.08425538065868   -1.83590797651983   -1.15879111066997
