    26
        -50.46021213  Gyration_radius:  2.67678583955 Dipole_moment: 4.569
 S          -0.19990361290379    2.37341570636828    0.19725950088454
O          -0.52072914597213    2.44568780121740    1.59642904074985
O          -1.16305254934250    1.65001582471833   -0.61781483948193
O           1.15627335380781    1.84393291883076   -0.02203437786390
O          -0.19644809220872    3.84913208817079   -0.38313753738938
H          -0.60017188965413    3.70598934776878   -1.23246820719056
H           1.65964759875256    1.05805122155451    1.42802401486615
O           0.90869792343124   -2.09865645632875   -2.70581830432171
H           0.83486290210432   -1.63158594102882   -3.53941658071634
O          -1.47891818824472   -0.79308022172141    0.24490519833543
H          -1.55649261399014    0.11660833763500   -0.12959122412120
O           1.88662312898131    0.40270969275605    2.12037432855263
H           2.21398720969281    0.91425596858274    2.86170103869806
O          -0.81476583544824    0.00676414926562    2.64426512365461
H          -1.41569941319714   -0.64190347648688    1.22337757948376
H           0.14715594589890   -0.12328926662321    2.66747086313197
H          -0.90619986654849    0.95510411453763    2.42692957051599
O          -1.58691549217957   -2.59156166905707   -1.82304104357174
H          -1.71784889465567   -1.93834629485680   -1.11235061578496
H          -0.00164993893931   -2.38533856075262   -2.47430594847207
H          -1.92964766912419   -3.42304263694568   -1.49241177158888
N           1.08133128191637   -0.75495696861923   -0.38415125230640
H           1.18427739162061    0.29346648284799   -0.43515128615964
H           1.23189150219535   -1.22618888516829   -1.30366806473086
H           1.71543520141673   -1.09174450330426    0.33685786310698
H           0.06825976260585   -0.91543880336699   -0.09223306826161
