    26
        -50.45796988  Gyration_radius:  2.58055845511 Dipole_moment: 5.751
 S          -2.16386874299614   -1.15738355445111   -0.08945043108387
O          -1.98665885702378    0.29570302062141   -0.04647720329408
O          -1.27164613288223   -1.83320338151533    0.81704625013925
O          -2.15321192541786   -1.66260976584365   -1.44964666291758
O          -3.64410844764861   -1.42558048760334    0.44786321131211
H          -4.17746205924563   -1.28791968245173   -0.32943484064285
H          -0.62879292552146   -1.29243109565346   -1.60954911483321
O           1.74083343937667    2.19853089518873    0.03895302092732
H           2.08250362360937    3.09177182766428   -0.01399666507080
O           0.34089242466190   -1.12749768717814   -1.74234466205278
H           0.66225468072703   -1.89851136521829   -2.21614828060253
O           0.67445211065695   -1.08485028510257    2.45809319252772
H          -0.05322910965881   -1.56623716458002    2.01452122565784
O           0.93106973341305    1.43726389282654   -2.35977124136301
H           0.55684838448406    0.55381868694423   -2.16513450945348
H           1.40289229817240    1.97292746583615   -0.86409926170255
H           1.59522602669002    1.30143199550839   -3.03819780662790
O           2.20124564657954   -0.65910159914283    0.28282626268745
H           1.41152008517970   -1.12065501245810    1.81246049262038
H           1.52172213300079   -0.88955922272700   -0.37341198576686
H           2.28272509270456    0.30119292834552    0.25442447767549
N          -0.26298890292675    1.19846661273611    1.65110276674960
H           0.14384668278118    0.30752265236009    2.11329272799859
H          -0.68512340304437    1.81658116411265    2.33395915728696
H           0.48303833896377    1.67924103008733    1.11834439893446
H          -1.00398019464043    0.85108813169130    0.95477548087893
