    26
        -50.45454419  Gyration_radius:  2.4232857751 Dipole_moment: 8.699
 S           0.64716598327090    1.86992215913935    1.32248636065928
O           0.88497677085174    1.39434395204639   -0.07324353906172
O           1.88163027322745    2.17137909076554    1.97538157933530
O           0.01204324575766    0.60325449888593    2.06379825055672
O          -0.40790610804744    2.84717756841522    1.34169263677117
H          -1.49398623324064    1.80451589374864    0.77188359596459
H           0.65499908839380   -0.11396687181440    2.08406803013683
O           0.93453047056700   -1.94289561735963    1.55285582295570
H           0.83363911578704   -2.59132392701478    2.25011639124643
O          -0.26131024075260   -1.24240884233377   -2.31384393710794
H          -0.43558012732855   -1.52128684856092   -3.21294467696997
O          -2.17272523407676    1.16301975554599    0.43923685327081
H          -2.91793121832599    1.25392727574198    1.03549092733541
O          -0.92594040999472    1.22827977702625   -1.99251269388528
H          -0.19924578294366    1.48255608107392   -1.38397860216979
H          -0.54888106459930   -0.27477226813434   -2.25708306061838
H          -1.70459897973404    1.26361694092093   -1.41768911173131
O          -1.31131435708505   -1.46463324442179    0.30921854027394
H           0.02627600020529   -1.81670282393521    1.15087026882999
H          -1.58292607483559   -0.53833925955355    0.46953050969942
H          -1.10309836132470   -1.51799993349652   -0.63414691451636
N           1.87139648815047   -0.83799497050038   -0.70923293599576
H           1.52882507702098    0.17198860430116   -0.39808028181387
H           1.77909525117316   -1.44237240394423    0.12266972502096
H           1.18924670093054   -1.13923191523102   -1.43741392853699
H           2.82161972694772   -0.81005270130818   -1.05912980964599
