    26
        -50.46365774  Gyration_radius:  2.44724659721 Dipole_moment: 8.574
 S           0.28817472105931   -1.88166312697511   -1.51604259224833
O           0.67450929901063   -2.58048247801722   -2.69616357433327
O           1.38854504921514   -1.39658828230475   -0.69136985241500
O          -0.48830739389338   -2.95546112959187   -0.59936481341735
O          -0.70806517937938   -0.82338788830003   -1.70558708813982
H          -1.50845653259085   -0.79660409459137   -0.36250020478154
H          -0.11468363755291   -3.75166346805259   -0.95807597204391
O           1.05719418174221    1.40429284688179    2.01120283985823
H           1.44830183639300    1.57488697237633    2.86796275855229
O          -0.12693707828440    1.75809472651430   -1.75805170529641
H          -0.37975351164658    0.83241962912555   -1.96350321065249
O          -1.98409477892065   -0.70076260277439    0.51111972344301
H          -2.65394546165228   -1.38533526924848    0.51253225372880
O           2.16419482103748    1.17570298682926   -0.62360818755671
H           2.01580421357648    1.36309587454314    0.31355892453062
H           2.04501261502451    0.21010284868954   -0.71660730831865
H           0.82731226337642    1.68877325191330   -1.49150811335950
O           0.47039439602730   -1.09577992587104    1.73914746983185
H           0.89135011366051    0.41156236933495    1.96605478804756
H          -0.47596820354013   -1.11710919698648    1.52646638212645
H           0.91197561626862   -1.31024461188520    0.88556664133676
N          -1.17080617648691    1.89555430374683    0.57288275176132
H          -0.35409889392370    1.87465152233407    1.21908129440584
H          -1.77709918511323    2.68494688588940    0.76198345049751
H          -0.76237274368859    1.92341192096979   -0.46492130353076
H          -1.67818034972085    0.99758593544990    0.65974464797119
