    26
        -50.45124303  Gyration_radius:  2.85112102208 Dipole_moment: 7.285
 S           0.38341404617875   -3.05580598661920    0.07262763839671
O           1.14620201744773   -2.28844718432869   -0.90585916030747
O           0.32977880978573   -4.46571758564805   -0.14247055957081
O          -1.17060321596138   -2.56292357515521   -0.17458033085338
O           0.66788083276536   -2.62121529163680    1.43116092491888
H           0.51631194468574   -1.19926455343794    2.01066284375832
H          -1.53263302868371   -3.41006483934009   -0.41216201076339
O           0.42397965232704   -0.24040926128478    2.29659417397704
H           0.84009667609085   -0.18425864110131    3.15728491653282
O          -1.64434686285302    1.04801556584406   -0.96847210072378
H          -2.14319685600995    0.61189543258332   -1.66064562671031
O           2.27680729655838    2.42855816430142   -1.18599407144244
H           2.90382912393612    2.96392863471370   -0.69865001760251
O          -2.09535822746912   -0.33300245333503    1.19142432994603
H          -1.91530658285658   -1.20571590340875    0.80656268303979
H          -1.34429573771413   -0.16529271405774    1.78496159918930
H          -1.93226114820172    0.62271793434811   -0.11069901308188
O          -0.23975708985986    3.44656660700845   -1.00421808725066
H           1.42180495085400    2.90390878781940   -1.16020394510404
H          -0.62498696121767    4.01579504548012   -1.67186079635392
H          -0.82166368903401    2.67125002672077   -0.93165436337033
N           0.92461847158988    0.21186768036033   -0.34908883249925
H           0.88286113436460    0.24559176723679    0.68385572857292
H           1.09895813396961   -0.80946469377603   -0.63232643064552
H           0.00380281591099    0.50675129762933   -0.71958874612629
H           1.64406348340944    0.86473572907953   -0.70666073593582
