    26
        -50.47044441  Gyration_radius:  2.46605124888 Dipole_moment: 2.895
 S           0.02050104750161    1.02980945977776    1.44085128550707
O           0.18711806571704    2.44289213994494    1.23457186016905
O           1.22718353110341    0.24669815421772    1.23918736742303
O          -1.10050786491641    0.45916755387472    0.69438655958243
O          -0.39341230572284    0.85064959868556    2.97028609234623
H          -0.04619071005854    1.63271780301365    3.38725275048009
H          -1.69637754660723    1.26876761944945   -0.70764153811169
O          -1.83791983199614    1.61543375261383   -1.61006450643919
H          -2.43595610360681    2.35889172300452   -1.52128570352192
O          -0.12192091005662   -3.45877294507745   -0.19632503124854
H           0.70307106280186   -3.94704858917723   -0.20073152402661
O           2.06730196427816    0.07406591082946   -1.31892415539376
H           2.09225943945710    0.06761925004794   -0.34586940574459
O          -0.07188227336584   -1.92848730528329    1.98503026064938
H          -0.87621317052407   -1.49701166876829    2.28127708689455
H           0.53373989347638   -1.19565327481949    1.75722267837963
H          -0.16576126998755   -3.01069272683790    0.68158947354625
O           0.81372757907504    2.40382173169559   -1.40672041949111
H           1.79612507710042    0.99778193167881   -1.53242566155709
H          -0.08459431475759    2.22089186293340   -1.72845869065520
H           0.71002999198147    2.58894044013927   -0.45761953378576
N          -0.27624293118679   -1.05878351682718   -1.35523287856921
H          -0.24569841805232   -2.07390329975143   -1.09355218123586
H          -0.84930497356080   -0.88086797064582   -2.17416599331486
H          -0.67220318900193   -0.53466692997143   -0.54013236013722
H           0.72312815093271   -0.67226071470049   -1.48250584172925
