    26
        -50.45339388  Gyration_radius:  2.62108585513 Dipole_moment: 6.431
 S           1.83226355412591   -1.33331441230530    0.74671256768399
O           1.70613959840801   -0.19909888851998   -0.14094882884693
O           0.85349178137951   -2.38066757369787    0.44327305933643
O           1.79224228986752   -0.96780760438200    2.15150601504842
O           3.25990113395261   -1.96385149562592    0.48459267385019
H           3.34546216519480   -2.56135786014095    1.22061340583664
H           0.48021795525426   -0.10282012560161    2.67666465816714
O          -0.40033229978915    0.34497890284397    2.70528289905414
H          -0.29044962645832    1.14745582720010    2.17811300509505
O           1.23743884057658    1.96335349463400   -2.08776582691561
H           1.76708003684623    1.26410724152903   -1.68639599184504
O          -2.12137853422400    0.61734206133803   -0.72519750771002
H          -2.86395005256216    1.19634902633532   -0.54659069295831
O          -0.91596016384587    0.62075029738070   -3.25793579141591
H          -1.50950455984556    1.08529013135555   -3.84959029708849
H           0.59492053129708    1.49645648541346   -2.64808471533738
H          -1.39090979757635    0.48542251165700   -2.42193888091467
O          -0.00318258067295    1.72567656266391    0.26448916168482
H          -1.30722348194694    1.08764337101526   -0.35662617554676
H           0.63920124412823    0.97423134579024    0.24596207801316
H           0.32971107191823    2.25594078834207   -0.48771691579934
N          -1.43757018053886   -1.36537924384182    1.01495624296658
H          -2.11560936176667   -2.04760538156855    1.33615079484685
H          -0.52445655429535   -1.85506813878466    0.71239101419680
H          -1.81116731361464   -0.79595821995118    0.23114251118237
H          -1.14637569587388   -0.69206911308906    1.79694151743421
