    26
        -50.47044451  Gyration_radius:  2.4660442271 Dipole_moment: 2.892
 S           0.82197450783677    0.88417998130059   -1.29581310992330
O          -0.50154902705080    1.38417431599124   -0.96645031451972
O           0.91136749924305    0.23683164723487   -2.57641279445516
O           1.36332344263413    0.08370412623633   -0.19787351072933
O           1.78653714772307    2.15154985966524   -1.37140766459765
H           1.83255509196909    2.34037203817309   -2.30321250311809
H           1.48299189296532   -1.62905073787833   -0.36627937705532
O           1.30781621087911   -2.58952882315487   -0.40299541664309
H           2.04000916085235   -2.97774377553831   -0.88405296046833
O          -0.76628271528309    1.06424478178469    3.20897959638444
H          -1.60461935698179    1.50523588167894    3.35670261965933
O          -2.35182999694739   -0.51511471048415   -0.46773136677199
H          -1.96713159768454    0.34440985593949   -0.71419465820944
O          -0.75629195748710   -1.85195179236402   -2.10263839255226
H          -0.14400032288727   -2.35357473655921   -1.53922025556526
H          -1.99231222537756   -1.12852406835334   -1.15106841646788
H          -0.22463442104633   -1.12516119204167   -2.47004059677281
O           0.45627058742201    2.41928667637132    1.26665199996676
H           1.38569773781178    2.26067658356111    1.08800354912125
H          -0.25629589089532    1.65090950593981    2.60147702000054
H          -0.00418899499629    2.14494771192720    0.44907765391711
N          -0.56748721377535   -0.88133080177453    1.39179536446556
H          -0.36705021408839   -1.84517291942089    1.63981972872657
H          -1.41033979692673   -0.81422048925155    0.72124384671974
H          -0.71663439007183   -0.26882764594048    2.22993077897637
H           0.24210484223836   -0.49032127303858    0.85570917990805
