    26
        -50.45568728  Gyration_radius:  2.56657794992 Dipole_moment: 1.979
 S           0.75236987858120   -0.45145108382650    0.50378394069944
O           0.07664243269110    0.86374146111518    0.64018648962277
O           1.71430823601090   -0.41843916358697   -0.58218691583923
O           1.53705753669064   -0.67870567154544    1.81099159285359
O          -0.23489283222440   -1.50245561427643    0.34033125220999
O          -1.20945756626490    0.92281879184591   -2.88048877349868
H          -2.14447299072946    0.87212408887777   -2.67448264137131
O           2.56589498328850    1.70928299982973   -1.77858661418352
H           2.36219183386399    0.82689070525800   -1.37222987231898
H           3.26272692540710    2.09748456169294   -1.24632071735099
O          -0.34945293491503    0.22623147106965    3.26500706732390
H          -1.00844055562410   -0.51306030598114    3.19924944004401
H           0.89438287023572   -0.37881084946525    2.52751606756370
H          -0.53139769508634    0.80767786654353    2.51480650497752
O           0.15859074323628    2.36204927137471   -1.30954685767484
H           0.09584509506101    1.75755124458290   -0.42351577503534
H           1.13587085462083    2.24657373116165   -1.59880363543877
H          -0.41506618403808    1.85328233720896   -2.00418162547818
O          -0.22776761820573   -1.42132401178903   -2.29334513936025
H          -0.35026653767678   -1.56012978036463   -1.32979955586860
H          -0.84108453834305    0.00467590342420   -2.73737388570278
H           0.72766051996393   -1.38048844341926   -2.39897291683329
N          -1.91362699964863   -1.84861306754044    2.61383793132486
H          -2.90188501974927   -1.79230608820928    2.40221543819253
H          -1.75006896782163   -2.72990482916202    3.08406107368388
H          -1.40566145931517   -1.87469550479553    1.72784812744856
