    26
        -50.45339384  Gyration_radius:  2.62107529989 Dipole_moment: 6.429
 S           0.38947018104471   -1.33665950321171    1.93763677514069
O          -0.42316562713639   -1.48968445010920    0.75165307555979
O           0.21162795070746   -0.02218278055838    2.56007628700148
O           1.79442143940707   -1.62451751282344    1.70969314261347
O          -0.12570433045253   -2.40367625391151    2.98678647117031
H           0.56395523342595   -2.37909770017588    3.64235636763179
H           2.55701989086012   -0.78431132407950    0.50250720108672
O           2.74508080772246   -0.12872019319993   -0.21276432326111
H           2.23736238374774   -0.43707354485740   -0.97501782975399
O          -0.34690248517003    1.85215209704975   -1.36363114584151
H          -0.02821977843859    2.31351688689073   -2.14090744987313
O          -2.18796616490680   -1.53959019345425   -1.60724637422755
H          -1.90316398310984   -1.84141131341687   -0.73642484659984
O          -3.04044611639187    1.08869689436992   -1.18693761840964
H          -2.65305214304564   -0.70288199225876   -1.43911249415355
H          -2.14385318165927    1.45905222925708   -1.14590123325525
H          -3.51070123271445    1.55936556771164   -1.87645235812425
O           0.32480064071732   -0.63603121033968   -1.59417862947812
H          -0.09885442495923    0.88210181098029   -1.49503892908745
H           0.17446248666978   -0.96584646954871   -0.67428696297150
H          -0.45144279730262   -1.02458375577307   -2.04602408723191
N           1.18411980048695    1.66591970149964    0.88322431338951
H           0.49297622696659    1.92300667400317    0.15215889554119
H           1.93243420826875    1.05157559904716    0.42254893319152
H           1.58623526712412    2.48745892592201    1.32110229383499
H           0.71950575815010    1.03342181099847    1.62418051612662
