    26
        -50.45339388  Gyration_radius:  2.62105229717 Dipole_moment: 6.429
 S           2.34140545176615    0.03196076087500   -0.45732444168605
O           1.89298179474703   -0.93921523468859   -1.45862105357383
O           1.54987824654583   -0.02995480825874    0.75096371278574
O           2.42267287730652    1.36802209346533   -1.02038425449197
O           3.81672691131192   -0.38106363289224   -0.06028103689702
H           4.30412172150378   -0.13005710949676   -0.83840396107629
H           0.99595994082481    2.14281566214876   -1.34993693595502
O          -0.20661234783214   -0.38050106179921    3.09140510431510
H           0.64658363572094   -0.40579693146330    2.64206390114387
O           0.03332179873081    2.32556229891511   -1.47918750590250
H          -0.33226790347319    2.38571650730786   -0.58665056304434
O          -2.27192399741866   -0.46793452428272   -0.17734589427339
H          -3.14283805495470   -0.07233688792724   -0.23732887885051
O          -1.72004961633236   -2.35723313450678    1.82172819168681
H          -2.56185014103491   -2.63012196477501    2.18919178479727
H          -1.90987041912784   -1.82144702983665    1.03455027566922
H          -0.67041513105027   -1.17850709710225    2.78660878011244
O          -0.71989715662999    1.22213886783626    1.01838559400619
H          -1.69765577848090    0.19818214205474    0.31898653738342
H          -0.81404231711103    0.96827197785492    1.95884338476462
H           0.17190472415153    0.84218366745228    0.82356929969869
N          -0.44664715405012   -0.15267492222553   -2.17626097541364
H          -0.33691985752804    0.90284875101604   -2.02266613477523
H           0.50862970956402   -0.57593883157022   -1.90569551403006
H          -1.18188753346246   -0.49157952299735   -1.52601630373416
H          -0.67130942367663   -0.37334001509589   -3.14019314266983
