    26
        -50.45352388  Gyration_radius:  2.57389403512 Dipole_moment: 4.219
 S          -0.97872871714649    0.27153928516475    0.97951652033074
O           0.36793745993904   -0.22238606634804    1.13236203268704
O          -1.96673816849069   -0.86897727091363    0.90298968296510
O          -1.10820182595939    1.14274541302190   -0.17638853315379
O          -1.41738679586207    1.02957446721555    2.22934210381467
H          -1.15913307613557    2.01226614592123    2.06461651859949
H          -0.65360036206246    0.46810318184820   -1.59382802079029
O          -0.41561878185506   -0.07064710252798   -2.38539114901095
H          -0.76120360025173    0.39777017961099   -3.14737906348631
O          -0.59028989820898    3.28256516923794    1.47808926375953
H          -0.83887746899865    3.07620686655453    0.56882941250350
O           0.50053551754939   -3.63521912377739   -0.84521059887622
H           0.83731224901458   -4.21958922528970   -1.52583954196454
O          -1.66148334057121   -2.16460507197691   -1.19005911886906
H          -0.95112454962281   -2.83219974415811   -1.00633836569523
H          -1.87541334098042   -1.46655083722645    0.01629608516859
H          -1.25302208104453   -1.49969974381840   -1.78078330825800
O           1.71685780313914   -1.26991032680776   -0.96588093786631
H           1.37092825641576   -0.91380624240228   -0.12809645414696
H           1.09088428093147   -2.84411919634096   -0.83277084013601
H           1.20300334116421   -0.83286316279976   -1.65789102406894
N           1.83902190394739    2.21344237212081    1.56862242646101
H           2.52120899067002    2.36311135299410    0.83552445293226
H           2.32901521822152    2.25056187295351    2.45375843928404
H           0.38278692001099    3.06425721246012    1.54546187361475
H           1.47133007618466    1.26842958527314    1.46044812419874
