    26
        -50.45339375  Gyration_radius:  2.62105244998 Dipole_moment: 6.428
 S          -1.91261602321177    0.19567586499484   -1.41296393901336
O          -1.64818238502165   -1.24081079453063   -1.52945031920782
O          -0.69623651298326    0.95980257277454   -1.24909246065395
O          -2.90137524953171    0.46614591478194   -0.38444113713352
O          -2.55541953597477    0.64670460835288   -2.78692193045075
H          -3.42377998926141    0.26080449096099   -2.73073214274245
H          -2.43113597938037    0.27383491613870    1.19234775919278
O          -1.90268718951972    0.03943794931931    1.99397433330308
H          -1.21065734996353    0.71209621796769    2.04350268480703
O           1.74320187221463   -0.92518100610848    1.23139267836051
H           2.14005865965404   -0.96833166602808    2.10270791230330
O           1.92852325080296    2.26255291392503   -0.94820908866130
H           1.10240337340822    2.08296904183127   -1.41279700033984
O           3.29194148583391   -0.17736650901709   -0.98453151053746
H           2.76237319201628   -0.57568430927719   -0.27479053756943
H           2.48197562231312    1.48150008884560   -1.11624017692915
H           4.20966624895914   -0.22081548806005   -0.71253733538292
O           0.45197616824734    1.31106468946195    1.06376825853115
H           1.27383335491787   -0.03240054989910    1.18349794199346
H           1.12717742697534    1.91894829742197    0.70034363682842
H          -0.09928847741411    1.15997664795410    0.25698323965591
N          -0.73585131156468   -1.95679203315409    0.76439295285410
H          -0.96925278999283   -2.91152858415259    1.01419229058155
H          -1.07098696930011   -1.73682037617386   -0.23776746822573
H          -1.23984549467433   -1.24562127275201    1.38884591367321
H           0.28418457247951   -1.78016161557183    0.84452547478121
