    26
        -50.45352397  Gyration_radius:  2.57389182311 Dipole_moment: 4.222
 S           1.14351616448928    0.82554969082322    0.04874159850261
O           0.84359416421363   -0.28747508600837   -0.81853329001058
O           1.92939212098882    0.37198478431629    1.25682068364781
O          -0.05789739345996    1.53606105713517    0.45328594040719
O           2.09416898394747    1.80099062757959   -0.63967982116952
H           1.49314470954218    2.48427173165927   -1.12090086608143
H          -1.18371536301488    0.60778996062463    1.19058925688875
O          -1.74707777106521   -0.03958837652490    1.67719809607966
H          -2.38667234665611    0.47494938036634    2.17279158035723
O           0.30424764496727    3.21272584067380   -1.70127888457987
H          -0.25679535735004    3.09309988889557   -0.92533484932915
O           0.38165320067153   -3.41145282567417    1.54752032415312
H          -0.11888731960190   -4.13931279507434    1.91884061954092
O           0.53782089070181   -1.05904493766713    2.72962284477500
H           0.61006826021916   -1.98228154137125    2.37391818037687
H           1.37426874485487   -0.25546285265601    1.92751569390746
H          -0.36652967040094   -0.75945242758483    2.50549184173664
O          -1.10518010447171   -2.05829078966620   -0.19802381604234
H          -0.15406499261257   -3.05086541299762    0.80082061214521
H          -1.60013908859222   -1.47578550927014    0.39326633892230
H          -0.39062719853832   -1.50516015739588   -0.56113311311671
N          -0.32371015031687    1.03879464050489   -3.09114656835419
H           0.08881190391365    0.42262598018161   -2.39106927102272
H           0.00311669280510    2.52221643890507   -2.35824470413758
H           0.17075385402515    0.88604038753576   -3.96121957988037
H          -1.28326056926177    0.74707230268539   -3.22985884770823
