    26
        -50.45452912  Gyration_radius:  2.51040046513 Dipole_moment: 5.104
 S           0.61743983159320    0.27881143386362    1.53137850863324
O          -0.45472395524549   -0.71565049787044    1.04021283960881
O           0.02039599956065    1.49582804246736    1.97502259749952
O           1.58887852756292    0.45567060840397    0.46763404272195
O           1.24153790383327   -0.46469176728801    2.70225221034824
H           1.33450149440098   -1.44869573643787    2.41781615847559
H           1.08643012194149    1.43816034862188   -0.75544407148485
O          -3.19373804804116    0.96654479555802   -0.92490071820920
H          -3.75458239845257    1.42261159544064   -1.55375337873997
O           1.26766409247872   -2.84087276525453    1.84223600877139
H           0.33575870237590   -3.06448789715750    1.90973042869374
O           0.63868179027832    1.87723977328973   -1.51491712013913
H           1.32379788957220    2.31683745038801   -2.02108906123975
O          -1.49869647758430    2.74085065182375    0.09062799848774
H          -0.79301706377337    2.69459384024089   -0.57073234840907
H          -2.68489740874873    1.66708304536763   -0.44838286406206
H          -1.08885428257956    2.42683337167478    0.91406641795464
O          -0.96968304531653   -0.36153438473836   -1.40352579298807
H          -1.88836127867734   -0.00415199996894   -1.31673103414772
H          -0.42374916971100    0.40489239870688   -1.65199736255678
H          -0.67821210321287   -0.59889766371777    0.03625575986161
N           1.60678621650253   -2.15227307342771   -0.68451022006569
H           0.75284179627751   -2.15047004084409   -1.22990892569717
H           1.44433672195112   -2.69240997901160    0.86294693907180
H           2.35394439959030   -2.50770810952430   -1.26674340771368
H           1.81551974325940   -1.18411345076804   -0.44754358470576
