    26
        -50.45484850  Gyration_radius:  2.48790226327 Dipole_moment: 8.988
 S          -1.06887737605572    1.91507634458915   -0.28214091221952
O          -1.81256189227435    1.07939921077880    0.69714306180404
O          -1.74785808490916    2.04355575342850   -1.53099763612506
O           0.25651656257494    1.04739032291103   -0.56333630711723
O          -0.57028833184233    3.11757747699330    0.34494882073985
H           0.82123466217808    2.81484360495875    1.08960817166284
H           0.03918135213571    0.48179618998030   -1.33221036561758
O          -0.16087401996416   -0.64509289198988   -2.58891756364802
H           0.05352971610397   -0.17098029648477   -3.39339802422635
O           0.30263945051394   -2.04268314331747    0.84739241453991
H           0.07169086082646   -2.86479811809492    1.28304197466036
O           1.63212570258636    2.37813667912905    1.46983975792799
H           2.14740147539196    2.12740380259088    0.69919216046515
O           1.73949761968056   -2.18689584081594   -1.50006536630028
H           1.37335019547194   -2.08182371294398   -0.60074522031166
H           1.72425364829983   -3.12524532038127   -1.69672471900299
H           0.61090300498125   -1.20435240507662   -2.34554474305949
O          -1.81798284793267   -1.28956991655481   -0.42112288013437
H          -1.59130092830788   -1.12048555940220   -1.34431870422489
H          -0.52557529684057   -1.76666068530557    0.33587504670765
H          -1.99461699009355   -0.40334515515922   -0.02820222394081
N           0.11656823480917    0.36111752206569    2.20527790242083
H           0.84459481511831    1.11086877242552    1.98927741088146
H          -0.77136239519375    0.68547573961400    1.66836559773585
H           0.38611025564096   -0.55160485037358    1.79604676676987
H          -0.05829937290362    0.29089647643870    3.20171556961287
