    26
        -50.46085923  Gyration_radius:  2.53234756616 Dipole_moment: 4.726
 S           1.05884692108999   -1.61564865103470    0.79496386632744
O           0.46940234282763   -1.62915298618858   -0.55530127835231
O           0.68695113441560   -0.42483051749437    1.51910849806757
O           2.48905938980284   -1.83596204667055    0.73434929319123
O           0.42735954252258   -2.84810342810120    1.55767618089800
H           0.86053915522918   -3.60251385446643    1.16895979899551
H           3.08178192346148   -0.25780210180285    0.75089363788726
O           3.04873492559768    0.72509132368573    0.69716076134219
H           2.45797417030945    0.96834151379436    1.41860866771262
O          -0.78813823136237    2.00084668673725   -1.16582753991920
H          -0.94268104251270    2.93944153995142   -1.27628343106962
O          -3.37098863830886   -0.21507127260109    0.83474362996003
H          -4.26457826129803    0.02202287903280    0.58421397618795
O          -1.93098335542443   -0.65370847645887   -1.38735306577060
H          -1.64689530350303    0.25753572608661   -1.53487977878905
H          -1.13784384504708   -1.13516241856342   -1.09172776887038
H          -2.92318957314968   -0.51941375840853    0.01332035869469
O          -1.24821244261530    1.40774922179373    1.27745134549430
H          -2.07781433004561    0.88818228138186    1.28509649505160
H          -0.55066160231912    0.75671022087103    1.48644142236469
H          -0.98680099469406    1.79996825045025   -0.18574427531634
N           1.46947873703838    0.61196494243156   -1.41146475819548
H           1.92251971122293    0.62271994343386   -2.31922771735318
H           2.16215578342915    0.81154141044054   -0.62779381144582
H           0.65609626602681    1.27948006768582   -1.37727707160878
H           1.07788760746053   -0.35422647597292   -1.19010742554175
