    26
        -50.46365780  Gyration_radius:  2.4471939293 Dipole_moment: 8.572
 S          -1.36142176472705    1.98473754927387   -0.35863136691107
O          -1.69448876924772    3.36964397753017   -0.39533989097963
O          -0.37087516050645    1.55677547688538   -1.33949597902830
O          -2.71104520078024    1.19382978152957   -0.74534856437647
O          -1.02916025973341    1.44888762966852    0.96448525302856
H          -1.48973034447154   -0.04455702787153    0.90424386008633
H          -3.15381464268295    1.88456721384515   -1.22400991636731
O          -1.69910592509612   -1.02098814871736    0.86932744027991
H          -2.64111251908655   -1.08469583073349    1.03056473192920
O           1.69942192132234   -1.74654365905440   -1.09459872273422
H           2.03555250967858   -2.38859921031556   -1.71980400644539
O           1.43951543489251    0.96762897031524    1.78821171592112
H           0.53570320218810    1.31824737763555    1.63619615704336
O          -0.69701185607070   -1.01102292513084   -1.71570707442068
H          -1.23414856057290   -1.19197463104818   -0.92825160086507
H          -0.60642321520114   -0.03056921578936   -1.72281091356088
H           0.78363777836507   -1.48295391082424   -1.42129029902032
O           2.19516684930214    1.05254109153057   -0.72108587510107
H           2.24347387269641    0.12290910559338   -0.98344824408903
H           1.32875268794782    1.36824459022792   -1.04524321855210
H           1.90446654862260    1.13179129192068    0.92605379118208
N           0.90833829391276   -1.51443698637295    1.47374292003857
H           1.22175309314718   -2.14937387384919    2.19839717485336
H          -0.12206595307082   -1.52725382606653    1.37732770659746
H           1.18740881999001   -0.45746614168254    1.69703249162270
H           1.32721315918420   -1.74936864850616    0.54948239985445
