    26
        -50.46365780  Gyration_radius:  2.44720106336 Dipole_moment: 8.571
 S           1.59128915577773    1.84092471186956   -0.00516478335145
O           0.26103083234620    1.98954828765233    0.57339742156443
O           2.57774558798501    2.73613503441021    0.50055532858632
O           1.41905107909724    2.20638317599533   -1.56507926505749
O           1.97609323109989    0.42699336429275   -0.03510020392852
H           1.19678106830600   -0.16053629708460   -1.25720637233570
H           1.72926220361176    3.10386891815036   -1.54053585168096
O           1.15855928030401   -1.36633187757183    1.73128471451306
H           1.66479874117576   -0.72945208954499    1.18263444416040
O           0.65107587243051   -0.58189825840460   -1.98049371326853
H           1.11796039365631   -0.39115965197075   -2.79478666949963
O          -2.53345069288253   -0.73546185292073    0.42125100452600
H          -3.48695620052016   -0.73054502171533    0.33815705782548
O          -1.45529184687061    1.01428461701168   -1.14259718392660
H          -0.88378533876626    1.51350493080002   -0.51513983995376
H          -0.82632489051441    0.51781142495725   -1.68964827451894
H          -2.19065453575674   -0.00845375512722   -0.18605547136577
O          -0.74620138574673    0.30372350494107    2.40770886650439
H          -0.39011104259851    1.03861665783602    1.87054130600688
H          -1.52076134681921   -0.01502669399093    1.92413935114430
H           0.50120142218780   -0.79558493749445    2.20937713016588
N          -0.37625847987577   -2.26664290454068   -0.10597407720935
H          -0.43565306290949   -3.27307635666942   -0.20629622506045
H          -0.00773962582388   -1.82063835249973   -0.96414864702708
H          -1.30471729542901   -1.84646946104234    0.10928403365479
H           0.31305687653555   -1.97051710734058    0.71989589953209
