    26
        -50.45454421  Gyration_radius:  2.42328439102 Dipole_moment: 8.705
 S          -1.22348912394544    0.30350004428691    2.01930438355812
O          -0.92703732089975   -0.08862169893538    3.36072836252000
O          -0.96411554110030   -0.81725599950132    1.06679371648058
O          -0.15993540335338    1.42328330926560    1.60368174275402
O          -2.49551849912098    0.91217319901334    1.73638076916328
H          -2.04556437049540    1.35416982108969    0.25524953382041
H           0.73205429858146    1.09041269892525    1.75060955421726
O          -1.76930182683457    1.64638188639821   -0.65089944440194
H          -2.01111235251062    2.57277045725137   -0.70058413467473
O           2.40365118843740    0.73220036135498    0.86264455084307
H           3.09168633327326    1.38348856412487    1.00096467360850
O           0.60484314265036   -1.35983161369226   -2.17891374096345
H           0.62756391205914   -1.86158572058348   -2.99391385306213
O           0.91743084503360    1.28468113113614   -1.21184344698042
H           0.86506461630851    0.46311287175675   -1.72031261507017
H           0.00354451744613    1.47410991348466   -0.91793461717058
H           1.88224597917088    1.03738302895941    0.06410272910755
O          -1.83075246524406   -0.97396116560000   -1.42614202222097
H          -1.68432879119008   -1.05107691176886   -0.45883189418252
H          -2.03884545300323   -0.03415646451312   -1.53371509705916
H          -0.37216679409671   -1.24052270973527   -1.94714115661651
N           1.31262123670505   -1.67895509211605    0.40642108774763
H           1.98598259677062   -0.93790227477093    0.65861317449702
H           1.20262182224373   -1.71336816740922   -0.62941123282419
H           1.56786275736401   -2.57807350886705    0.79702269803842
H           0.32499468574968   -1.34235594955274    0.78712629887141
