    26
        -50.46254341  Gyration_radius:  2.49132693026 Dipole_moment: 7.180
 S           1.16832835741444    1.93954573706202   -0.71239185152796
O           0.81177098828839    1.46768849145285   -2.01946741046321
O           2.41143230224867    1.35626627425012   -0.19992632896170
O           0.10083216526346    1.78025232587431    0.27603303860718
O           1.43942567923001    3.49470531256695   -0.82378391543904
H           1.74125613728458    3.70305123372977    0.05413006533785
H          -0.02945112049218    0.91170775136250    1.74798167914340
O          -0.00004211547903    0.17221598744505    2.39271715012531
H          -0.79989916576003   -0.34842506834953    2.22645214669472
O          -0.07626207905433   -2.19075705740726   -0.75645523761741
H           0.03609591626585   -2.97474364681775   -1.29499988425555
O          -2.35321402924745    0.81828221420093   -0.31257350693747
H          -1.54248091353973    1.32762202452120   -0.12602816456788
O          -1.03373360621906   -0.40815607554304   -2.27646078922916
H          -0.44706731660638   -1.47264690771642   -1.39768894727876
H          -1.71116618723185    0.03328059402978   -1.71352306119980
H          -0.33401445068901    0.27234294599483   -2.36372439658397
O          -1.86143504725684   -1.52980609269661    1.21053602970443
H          -2.36558434739837    0.10674906255573    0.34317972838849
H          -2.58885927862120   -2.15063494174859    1.26364555440027
H          -1.25588669393171   -1.85500084799447    0.51517021675580
N           1.75710196610817   -0.92044693036123    0.79361120319164
H           2.10558037590804   -0.01348937941630    0.32924724223002
H           1.17271849528460   -1.46086963782769    0.12186971131016
H           2.53501249037077   -1.47230082755786    1.13739859461582
H           1.11954145785222   -0.58643255147982    1.58505115354214
