    26
        -50.46053981  Gyration_radius:  2.59449143308 Dipole_moment: 3.613
 S           0.21145327898762    1.86093134344511    0.89288192681399
O          -0.71904450316400    0.75158390621976    0.79034858894443
O           1.25668315303493    1.78125479436436   -0.11704781482127
O           0.73673428128267    2.04553768724368    2.22738872799574
O          -0.64574582986404    3.16646981844920    0.56155780432096
H          -0.13707176778247    3.87926287555816    0.93734551393326
H           0.99330850151972    0.44581339946533    2.67389244875736
O           1.07564728728830   -0.53398637817512    2.64176288673776
H           0.17646938004170   -0.85436811615873    2.52360156578497
O           0.98625743606127   -2.48200510447964   -1.09341341560534
H           1.12064702425268   -3.39607755252720   -0.83898319287351
O          -2.63451903994755   -0.97654492532458   -2.24849585261435
H          -2.15408607288688   -1.23536711838658   -3.03690667194631
O          -1.60981547156742    1.45843713660889   -1.62932044430215
H          -2.38931318663368   -0.04486827119056   -2.08331442653289
H          -1.93537929799028    2.35433544413695   -1.53033905991241
H          -1.24964440285091    1.21588227613215   -0.75723792354378
O          -1.27593835605391   -1.77819816056751   -0.05020019549494
H          -1.12743043767833   -0.89500053775511    0.32586905193452
H          -1.89895416902684   -1.62394222655475   -0.79197585561488
H           0.07535603333845   -2.23532526279231   -0.74683667563856
N           2.25337949279361   -0.59348662972757    0.26086888765126
H           1.89167434785511   -0.70421936923225    1.24884870833485
H           1.82426329388147   -1.34515590334943   -0.35259351196137
H           1.90817906065852    0.36592505913856   -0.04037963469185
H           3.26688999446622   -0.62688819456069    0.23267854434256
