    26
        -50.46333833  Gyration_radius:  2.6486480113 Dipole_moment: 4.723
 S           1.54896660609268    1.10017203684860   -1.35830468013467
O           1.60093372191214    0.14456631016466   -0.24009854294387
O           0.30965852736465    1.84342694495596   -1.34030341033900
O           1.89787141467286    0.50600048164828   -2.62337209259916
O           2.70922018996607    2.15110081435940   -1.04222291979735
H           3.38620348467213    1.87607743126910   -1.65204832290850
H           0.35955829936048   -0.00318295514601   -3.18950861672654
O          -0.12528959536312   -1.38973211256037    3.21095956803468
H           0.66463219108817   -1.91927394254127    3.33257550951228
O          -0.60596878081127   -0.14933494501573   -3.23143968199684
H          -0.98778437485155    0.72740324413614   -3.13759947952302
O          -1.77453246740093    1.18326281717944    0.17238743942656
H          -1.18603246533607    1.66372765751751   -0.44337371454038
O          -1.48321521583353   -2.66070031439014    1.31297268609513
H          -2.44086110569006   -2.62922709502642    1.29279722652966
H          -1.17785612614980   -2.22735089844492    0.49076589112484
H          -0.68589072690251   -1.89501177027018    2.57351478118637
O          -0.71465604269749   -1.12503671013480   -0.76123355963026
H          -1.71174206049175    0.26117250964925   -0.14786107543332
H          -0.80996855148247   -0.98408737130762   -1.72943749934097
H           0.19089653926571   -0.82120728434423   -0.56415115105139
N           0.21463353157498    0.88534820469049    1.84456906201251
H           0.53869308248603    1.69335822250568    2.36334669035269
H          -0.70328893151923    1.08891399656095    1.33329150109143
H           0.89190845631032    0.63437715196293    1.06611306032556
H           0.09391038970216    0.04523757568420    2.46766133129750
