    26
        -50.46306618  Gyration_radius:  2.5452469321 Dipole_moment: 3.922
 S           1.15375321031864    1.93123039286276   -0.05967032879405
O          -0.14562310327739    1.52035839231640   -0.55425817992615
O           2.21635562713813    1.03699115114704   -0.51867136605431
O           1.18958435351743    2.10745209726791    1.37806717737219
O           1.44658716516717    3.34668873037876   -0.70049062216932
H           2.19371669966901    3.63480416633211   -0.18679897288767
H           0.76312088459682    0.81625144583218    2.36019935701983
O           0.52174556814832   -0.09323303676572    2.65264760175890
H          -0.38475762008865   -0.22247698461668    2.33629970255396
O          -0.24862686583751   -2.24346769421273   -0.47789993358552
H          -0.77963951231817   -3.04061407289934   -0.48281773648676
O          -3.31783132580306   -0.39623421691057   -1.20321283673923
H          -3.81830498025236    0.39392441891933   -1.40946552902210
O          -0.94021872228151   -0.25377910628766   -2.44925097160752
H          -2.53249863779173   -0.38026007205484   -1.80012864973084
H          -0.60349449844757    0.49830619789633   -1.92936145129872
H          -0.50000226038824   -1.03212495764846   -2.08482604920214
O          -1.51136652100647   -0.30990676222206    0.77562615785703
H          -1.03803541238929    0.44849779939933    0.36689902884429
H          -0.77829022554911   -1.55738500003197    0.01928052760551
H          -2.35090956620512   -0.35970713190724    0.27011958843822
N           1.91491505794046   -1.19707760595140    0.74078744666110
H           1.24594830277428   -1.78142395064998    0.20250602212406
H           2.12167984633428   -0.31049257292246    0.17355940735784
H           1.41372549632128   -0.85508286265529    1.62818023394138
H           2.76846705955791   -1.70123877470244    0.95268038565100
