    26
        -50.46306760  Gyration_radius:  2.54498748356 Dipole_moment: 3.895
 S           1.12719835351819    0.98938526802163    1.67808640309155
O           0.23306088150775    1.47781819736828    0.64656590395943
O           2.22396032522322    0.20227166884029    1.11550689417001
O           0.44403894734033    0.27233211860759    2.73598687891222
O           1.78015025852287    2.26611037639167    2.34421562852540
H           2.14915720057380    1.89444769307988    3.13837891760266
H          -0.48815105678980   -1.06303254539411    2.33378670737043
O          -0.89281307638369   -1.79588564045897    1.81407573337737
H          -1.52086762302703   -1.35988225448849    1.21910894961662
O          -0.09292016364530   -1.24903696003110   -1.93690023644035
H          -0.59098758974674   -1.61116698478080   -2.67058289012827
O          -2.26826020409087    1.67064003331744   -2.16064291175203
H          -2.55642559260700    2.55289571403541   -1.92388004993896
O           0.41659158200292    1.58729705284881   -2.05969582121153
H           0.48204790478988    1.70356749872291   -1.09452845898395
H           0.57147548527204    0.64665615216114   -2.21352420668121
H          -1.28905597669734    1.72743843957068   -2.26701060371721
O          -1.70964832984910   -0.09134343481300   -0.21817275901266
H          -0.76277978169564   -0.83765691943542   -1.32026831765535
H          -2.18001134319116    0.48344282875979   -0.85923797304070
H          -1.05610779808074    0.51221255708155    0.20005620293891
N           1.21290431148209   -2.02517323651448    0.28858837603365
H           1.81551012932785   -2.83693276669705    0.36300680034314
H           0.87684919097266   -1.88280085833712   -0.68359362748694
H           0.35159514301733   -2.09786995313941    0.92778558771117
H           1.72348884231829   -1.13573402482582    0.60288887239469
