    26
        -50.46306763  Gyration_radius:  2.5450024123 Dipole_moment: 3.896
 S          -0.91015882096451   -0.65908465060545    1.94981746758099
O          -1.56028426254897   -1.62833910142242    1.06845699670892
O          -0.74922134614801    0.62930710599199    1.30461623993848
O           0.32407666964578   -1.18257212526547    2.49995145135101
O          -1.88831421800222   -0.42826447540472    3.17048283664159
H          -1.75561244562769   -1.22703263032747    3.66978632417366
H           1.63709473964068   -1.39657775925495    1.47798209693855
O           2.18169620552866   -1.45627680662580    0.65897832537991
H           2.28590553983108   -0.53941878897741    0.36391983559351
O           0.32528771141425    3.38301081345285   -1.02761418225945
H           0.17788612675313    4.07213300102686   -0.37890210799395
O           0.13129775487008   -0.02989664131805   -2.30244942016290
H           0.49775464420195    0.30998902129589   -3.11955733023321
O          -1.76484615775751    1.69351427260985   -0.97698681065138
H          -1.45586709553480    1.00890781811442   -1.58384372763025
H          -1.58735292704778    1.34453011778701   -0.08476760673317
H          -0.52453008487561    2.88557464245379   -1.08882776319149
O           1.35778383341347    1.03783880055362   -0.23753124586472
H           1.25084618542294    1.97648470292242   -0.50218585317136
H           0.64555511964442    0.40371332994799   -1.56374701497226
H           0.64856878992515    0.90145953597839    0.42933324300129
N           0.14468365971289   -2.24581707485032   -0.76982029510246
H           0.05086920602303   -1.55361999504466   -1.53825192939320
H           0.09623405292212   -3.19823047136725   -1.11358567605585
H           1.06743846702272   -2.04507639643581   -0.25620010610167
H          -0.62679132724441   -2.05625622518892   -0.04905373779822
