    26
        -50.44030455  Gyration_radius:  2.50643364227 Dipole_moment: 3.814
 S           0.22774087276553    2.19993058038596    0.68647631470442
O           0.05467326260270    2.39551792315181   -0.71359277434442
O          -0.91294000100400    2.25640529954611    1.53795327116589
O           1.24707092200784    3.29353463933864    1.20198588302997
O           0.99255061350777    0.89422827102357    0.94028287247918
H           1.42187088531521    0.54378330644057    0.05399750460562
H           1.02046436683190    3.43659958687660    2.11734574480181
O           0.07908751721775   -1.48287538766959    2.33504444925344
H           0.62642842136035   -0.70390083466277    2.20107275734494
O           1.98862126066453    0.11903171182818   -1.22176717363174
H           2.61120026690224    0.78933299981917   -1.51212511961154
O          -1.67112222153457   -1.07311013357754   -1.17109245432547
H          -2.33824695352765   -1.67893565505627   -1.49658462672156
O          -0.09904958289123    0.50684117293824   -2.66448319851586
H           1.19626075825803    0.18538329293454   -1.85773451309687
H          -0.76905242524119   -0.07456425092520   -2.24597793427414
H          -0.23769589096181    1.37589666992519   -2.26103219480254
O          -2.15828804199143   -0.23025554461043    1.44882587503315
H          -1.88182174999323    0.69065558519353    1.54931009657610
H          -2.10060018964141   -0.43343178253042    0.50056496799067
H          -0.83530702282138   -1.16774528729571    2.17876333129920
N           0.38937818112815   -2.45116117902804   -0.32022849761370
H           1.23934504634237   -2.01452175024604   -0.65567823202484
H           0.46606318509110   -3.44862056167074   -0.46998851644293
H           0.33775999428224   -2.28520449446758    0.69020665710107
H          -0.89439146414655   -1.64281419867590   -0.85154448994282
