    26
        -50.46163603  Gyration_radius:  2.55694364309 Dipole_moment: 2.230
 S           0.23363998777540   -2.24468982245276    0.57650644543213
O           1.39264933558707   -1.39725357224464    0.85308813440039
O          -0.26733283791966   -2.00350614050129   -0.75649737228668
O          -0.76297249809926   -2.16768862395713    1.62829917235447
O           0.75798632635903   -3.74653890202478    0.60386939757682
H           0.71074606338763   -3.95838156584467    1.53079052635242
H          -1.29769642793524   -0.66077492347487    1.69488566858741
O          -1.68681551940341    0.25084294547835    1.66578422189476
H          -2.20625112244524    0.34214487519185    2.46633593009859
O          -0.70702439968354    1.24249995021036   -2.01782540111382
H          -0.93747981796394    1.36814040001102   -2.93864837830710
O           2.27953444547131    2.21652442537059    0.53726950752931
H           2.50939527432355    1.77311718796971    1.35662935906319
O          -2.36595045486243   -0.40858928292482   -0.93297830243605
H          -1.72321914784643   -1.14909215731851   -0.92884278476298
H          -2.39936084076705   -0.11090223939879   -0.00946843460460
H          -1.40639319406178    0.62283110541801   -1.63966756394322
O          -0.35456838674516    2.39768663553857    0.53568027967373
H           1.31821998973738    2.44513749468273    0.61527700925277
H          -0.78619259153163    1.67461472472665    1.02229909848674
H          -0.56907670171130    2.24278355660392   -0.39446215258981
N           1.66203757551394    0.25128649151843   -1.12174780280606
H           2.29315571784879   -0.08314925804633   -1.84087817264473
H           0.74036522061444    0.52250365000739   -1.53365538855168
H           1.51923859640029   -0.50341598076437   -0.37596509000777
H           2.05336541795087    1.08386902621939   -0.59607789665953
