    26
        -50.45267849  Gyration_radius:  2.74595337645 Dipole_moment: 5.930
 S           2.47448282292423    0.69425622370303    1.49435441601632
O           3.22486135779041    0.93771665375189    2.68161856742208
O           2.51598542491191   -0.68549851875281    1.00544150354727
O           3.20520621848981    1.56001359880508    0.32979449382092
O           1.10321887568609    1.19997700101088    1.47898377082842
H           0.85716571640957    1.72822042939586   -0.05092930856505
H           4.07233516695069    1.66112267747206    0.70778023737920
O          -1.30461410934851    0.01811928686011    1.32981482033200
H          -0.53815560557551    0.51290544958486    1.67317340124460
O           0.74525656047839    1.80371588775246   -1.03173340785994
H           1.56491722641889    2.19643727468776   -1.33768813197691
O          -1.88130130569202   -1.34341106925371   -1.97392092522672
H          -2.59391549796361   -1.51723164495636   -2.59008287948262
O          -2.02430980708154    1.26683832183528   -0.91938382157524
H          -1.73966803949989    0.62158379567381    0.68435597232957
H          -1.19421223535442    1.72353710285699   -1.10752524664311
H          -2.00957632954178    0.44726708941054   -1.44155905687878
O          -2.35984935206968   -2.36421786721109    0.51581731449671
H          -2.13160087875135   -1.78430266576896   -1.14090758437974
H          -2.23104887243279   -3.09954023457497    1.11558384620114
H          -2.14925162106334   -1.55643520070007    1.01468145365693
N           0.47676636254083   -0.83630712517218   -0.51371630553673
H          -0.30734670441512   -0.70273698179299    0.17344600221902
H           0.55337520810775    0.05176826821219   -1.04540668967242
H           1.37853561637478   -0.91209026159718    0.07841357161180
H           0.29274381172778   -1.62170750123804   -1.13040601329446
