    26
        -50.46163601  Gyration_radius:  2.55693613292 Dipole_moment: 2.233
 S           2.17053329774525   -0.81258009604200    0.23174274217244
O           1.17299376104531   -1.41626152693416    1.11401917093758
O           2.05081314179411    0.62673560467874    0.23694349909579
O           2.17551513125910   -1.42181106744370   -1.08511039577579
O           3.59181529663400   -1.15581163205016    0.85893252399295
H           3.76787967475228   -2.01826909698368    0.49641800095537
H           0.74693011009047   -1.16057672720179   -1.75746063945389
O          -2.50793306976054   -1.13222765726648    1.68103611317367
H          -2.13347501285578   -2.01457619007438    1.63625794132698
O          -0.10606384151394   -0.91445052854572   -2.19920007970554
H          -0.16453285747599   -1.46153260178279   -2.98427338948332
O          -1.05636732992889    2.23516031317903   -0.03446436821947
H          -1.11362044916546    3.18407466325771    0.07980576168449
O           0.74369698969805    1.68714364430236   -1.79938925967023
H           0.41362887117962    0.86753620065281   -2.20173664968268
H          -0.36985472694372    2.08438228695045   -0.75696192772326
H           1.39605082615264    1.38713219579362   -1.13167503346646
O          -2.35427753982301   -0.16302533645394   -0.77011426043790
H          -2.61607359973653   -0.83739925367927    0.74088895779833
H          -1.60391108250152   -0.52094718715815   -1.27484269472337
H          -2.13373362875152    0.76461222902477   -0.60856917320425
N          -0.41097472281525    0.46128855350475    1.92398990397284
H           0.32329535018930   -0.24432088956856    1.59369408753079
H          -1.30809617145015   -0.09648898178449    2.00633138337679
H          -0.12867670516297    0.87188460030392    2.80661831459219
H          -0.54556171266107    1.20032848133082    1.19711947093334
