    26
        -50.46163607  Gyration_radius:  2.55682585219 Dipole_moment: 2.234
 S          -0.58128609083516   -1.98763580494529    1.06553127703466
O           0.52810121799333   -2.08032636438866    0.11763862436282
O          -1.68453212018931   -1.25571638032997    0.48841464850821
O          -0.14917748522781   -1.51708519226284    2.36824477678827
O          -1.09379579040491   -3.47471999771715    1.30457226015702
H          -0.50965645745481   -3.78016089234947    1.99128358717819
H           0.43290554129339   -0.03671587205971    2.19195706743809
O           0.70524902560033    0.91097006987498    2.08716525450120
H           1.15011496881950    1.14979418519442    2.90209890674960
O           2.44973807166426    0.24661513030255   -2.08225233622819
H           2.94932182310461   -0.38492194069028   -1.56039880427961
O          -1.21331302950474    1.75703342974408   -1.24705595637356
H          -1.94927311207267    2.15964149835854   -1.70867562318283
O           1.45749329685802    1.97818569311376   -0.35328323498955
H           0.58182330966195    2.15636307521086   -0.72286069268558
H           2.22862749073877    0.99041200809632   -1.46560716177660
H           1.29187322200887    1.58920198336179    0.52261384576602
O          -1.88738441979295    1.28125497871781    1.19733035019439
H          -1.04746323325764    1.36502975284014    1.67697172632863
H          -1.51984400388309    1.63023127902187   -0.29522739551292
H          -1.98903741389006    0.31769692045196    1.04704515358066
N          -0.04951970110458   -0.60529517836564   -1.92711184294158
H           0.08601494923077   -1.24009743328452   -1.07578325441987
H          -0.60751647989033    0.23646235814933   -1.65719016593796
H           0.92708375558659   -0.29062139442785   -2.19129694723834
H          -0.50654733504981   -1.11559593160930   -2.67412408302315
