    26
        -50.44506736  Gyration_radius:  2.53845840783 Dipole_moment: 4.628
 S          -1.42083275135712    0.23234093308632    0.30566969177402
O          -2.10964493256590    0.94373101596326    1.33804279495910
O          -1.21595912744643   -1.16606737936303    0.55484755938814
O          -0.03215925550247    0.91679880804426    0.06148513275232
O          -2.08586834803647    0.41185673144166   -1.05238445514749
H          -1.68446773550646    1.23860365955259   -1.53616240022065
H           0.58941632616392    0.67484346505851    0.81003968537826
O          -0.86076212560965    2.22591621041618   -2.27488472882608
H          -0.11932964394098    2.35386625646409   -1.67420633780617
O           2.01203273283725   -0.59314763684517   -2.09431770220806
H           2.67463482616066   -1.14484808504551   -2.51270143406268
O           1.40676142129647    0.25830865393505    2.10522128493792
H           1.77248971012574    1.02976945459926    2.54232029142679
O           1.35182721407390   -1.84386486180965    0.17032384264539
H           0.38412286250386   -1.76637616343956    0.26317653917035
H           1.76067584873522   -1.05408371334378   -1.25957424247606
H           1.71764740633991   -1.32714722351148    0.89686302874474
O          -0.10594543356700    0.08995837662744   -3.58537959778584
H           0.70672676050588   -0.14408629700760   -3.08275233705978
H          -0.78906359871652   -0.51619954553351   -3.28971901623680
H          -0.54594715378499    1.56850519526175   -2.95320579053677
N          -0.74747408399728   -0.50572825998061    3.35612335017045
H          -0.96594501706820   -0.46029643726551    4.34406307600764
H          -1.39755879116162    0.09665018878504    2.85103215232909
H           0.63965049797797   -0.07145941962821    2.68261478043220
H          -0.93502761845420   -1.44784392646755    3.03346484224990
