    26
        -50.44412408  Gyration_radius:  2.40825243693 Dipole_moment: 7.591
 S           1.61210422616390    0.16463177759239    1.19155642014870
O           2.47500584267548    1.30948211687621    1.16805727908993
O           2.27277145099804   -1.11474874379628    1.30338004563294
O           0.88188466027486    0.12615836835329   -0.26528597701356
O           0.44979299411641    0.29188670150634    2.07315766976534
H          -0.62414917731287   -0.60453655645745    1.52941910235461
H           1.58099205361902    0.06927923588715   -0.91077781144823
O          -1.11594115813005    2.03196868575179   -1.42732199597127
H          -1.92323005209812    2.54899609351582   -1.40718214080833
O          -1.38504788421472   -1.16354096176992    1.15457942893417
H          -2.11513810943142   -1.05923112413662    1.76717301362591
O           0.26007403068251   -1.86504209560118   -2.19641316342791
H          -0.01269999322705   -2.59946041335002   -2.74936936940877
O          -1.61060127023674   -0.42387169833185   -1.28808404357431
H          -1.54398160251451   -0.68206876123711   -0.30052443141172
H          -1.35504446703682    0.59727753164442   -1.35690796397217
H          -0.83576234752394   -0.95493126109720   -1.73462668501173
O           0.67822322976482   -2.83249620762691    0.16208643105512
H          -0.13251387462022   -2.59898951603061    0.63127438546910
H           0.52311939854583   -2.26281491086828   -1.30702078813138
H           1.37892969614085   -2.29196044660698    0.60208080875739
N           0.12082029185315    2.73435100816910    0.74433208224055
H          -0.57218841628292    2.30450098938031   -0.60092910188274
H          -0.09685719730689    2.01401488660988    1.43092410082976
H           1.12499262040902    2.62185169081517    0.61361764476591
H          -0.03555493532753    3.63929362082368    1.17280504937434
