    26
        -50.44412417  Gyration_radius:  2.40820293696 Dipole_moment: 7.593
 S           0.65390953548082   -1.18555663481601    1.48776534633999
O           0.70949746143714   -2.61335424026923    1.36845789875211
O           0.18771119880160   -0.68148754925266    2.75835030718500
O          -0.46613087391950   -0.69096990380609    0.41159691548822
O           1.83751618590413   -0.48290382329005    0.98813267499598
H           1.40096233459187    0.89302749921240    0.57733973742115
H          -1.27821656477699   -1.12702403353849    0.65458368186956
O           1.12329544872026    1.81171399485078    0.24433263313743
H           1.92733302592619    2.23501646789061   -0.06141674520426
O          -0.37833199389674   -0.77821383694847   -2.58107863569534
H           0.02880353239019   -0.61863959092890   -3.43446323991670
O          -2.61674020167563    1.16783086560793    0.39785087509134
H          -3.25254505041349    1.88496182742592    0.42930774572939
O          -0.81795041179442    1.37429975117381   -1.36961820984877
H          -0.65992806570570    0.44550606443688   -1.84439507058139
H          -1.60781098352134    1.23883677923496   -0.70684583450342
H          -0.01395446788911    1.53728438156347   -0.75848330821611
O          -0.87508095071651    1.64304001391905    2.24557270011363
H          -2.00069694881409    1.30092382441473    1.18603647689333
H          -0.52593178167416    0.77931767293919    2.57550242496375
H          -0.14007245396036    2.02289625347030    1.74815337514791
N           1.43567033750735   -2.09133631058929   -1.26826919420920
H           1.91587054325146   -1.40025100988336   -0.69433851066336
H           0.29205289216580   -1.33085596083350   -2.03492771017078
H           2.13452385089414   -2.64853530206520   -1.74584328486057
H           0.98624440175545   -2.68552717993704   -0.57330305913031
