    26
        -50.44558835  Gyration_radius:  2.40948989203 Dipole_moment: 4.281
 S          -0.52372321036539    1.64584672820377    0.43338265509390
O          -1.82913961334377    1.34328720639989   -0.13015489716609
O           0.12217239363817    2.81280819989801   -0.07951157628811
O           0.39795662503320    0.39683617879687   -0.08486492257993
O          -0.49412535938149    1.48761718897833    1.88419101835942
H          -1.42479265555708   -0.23670104806456    2.01857037135140
H           1.29106702935097    0.73162906160994   -0.04423182546649
O          -0.19615425937008   -1.40678140100517   -2.28940305359126
H          -0.95363905156453   -1.74995007626146   -2.76772292360565
O           1.90227851927331   -1.79095997668800    1.28562117178544
H           2.63873411142240   -1.78961394942104    0.67186664395233
O          -1.91941968109076   -0.74010416940968    1.35320090796881
H          -2.12108712310305   -0.02771250612687    0.69648038930967
O           1.92858256853208    0.67485401775772    2.27970950462768
H           1.88736037297972   -0.89628657777083    1.70488933831370
H           1.01151311656848    1.04056201201608    2.18775871743346
H           2.19654668311597    0.85736543721105    3.18193023004876
O          -0.33788227498816   -2.24110023859511    0.10892749511881
H          -1.03234984853900   -1.64382642074543    0.63632288257370
H          -0.25720609518583   -1.85410069799708   -0.85048512254736
H           0.55772924567727   -2.08488110068609    0.57087013194207
N          -0.57197606653472    1.19588220317112   -2.63249273064566
H          -1.20380103158437    1.33311271264238   -1.84352416367952
H           0.21489714464089    1.80752805211362   -2.44978352422096
H          -0.24731216880552   -0.40481145192919   -2.37625047972471
H          -1.03622938078320    1.53950062597218   -3.46529623841769
