    26
        -50.44558843  Gyration_radius:  2.40955067633 Dipole_moment: 4.277
 S          -1.50776488082534   -0.91689192616595   -0.23661009431878
O          -2.79730323359759   -0.31545374115529   -0.10536242445724
O          -1.10373074764911   -1.79597090100430    0.84832859856208
O          -0.45238430891867    0.32757571918149   -0.11266040750372
O          -1.19601787057503   -1.47419793405529   -1.54936889549492
H           0.63356866538974   -2.08029755866864   -1.19293487946919
H          -0.89313687637764    1.05297172126273   -0.54948627104981
O           1.12308101015802   -2.16162279654097   -0.35936746109261
H           0.37672826356968   -2.18244561628173    0.29000053410221
O           1.16383188861438    1.01170407894380    2.20955538707051
H           1.54708922411361    0.58928556406866    2.98091749299032
O           1.66013066641129    1.45153933803352   -1.90171507282218
H           1.49730290163880    2.36638708218808   -1.66593327094211
O           2.26410415209285    0.01726286492272    0.14355285401069
H           2.04488533946552    0.59811232478196   -0.66546635353485
H           1.76828546890355    0.42819930322135    0.95718148241149
H           1.82208745877367   -0.92145421551469   -0.05793489124163
O          -0.66491277305300    0.65564790704236   -2.91592877557212
H           0.82577091834385    1.11669120087154   -2.31188819852669
H          -0.77908704234998    0.48543961031489   -3.85251132881012
H          -0.91693009176357   -0.18427202629995   -2.45306160437417
N          -1.39150953937806    0.40024943380548    2.56824589109058
H           0.17298316303189    0.84108309762843    2.26669573552035
H          -1.36150718736903   -0.51593835348325    2.12076154853454
H          -1.76000786648246    0.27656628305924    3.50424201800034
H          -2.07555668216584    0.92982952980608    2.04074836693828
