    26
        -50.45774382  Gyration_radius:  2.49158327496 Dipole_moment: 5.244
 S           1.54924351050113    0.53843802694931   -1.62874329936933
O           0.52843521405809   -0.40411112494567   -2.12152445961782
O           2.79184786744803   -0.09548005538205   -1.28753236204948
O           0.97473232659100    1.36947540446457   -0.59170182548072
O           1.86307972109730    1.50019015233422   -2.86544985104490
H           2.68891190675493    1.17027630649706   -3.20863196389360
H           1.54431258697737    0.57908043587647    0.72918257796000
O          -1.67257171991235    2.10015744549259    1.03943979972978
H          -2.37089748954233    2.53683087876743    1.52761520898683
O          -1.66192940697792   -1.79601765792128    0.76431812897209
H          -2.10880074947193   -2.64061108358478    0.82554678907497
O           1.87406060194864   -0.07071345655164    1.39296273852156
H           2.81182099812525   -0.15166393625453    1.20185747764530
O           0.76956891132148   -2.10655868984397   -0.02782232341353
H           0.80840489406046   -1.67137801856732   -0.89703536689441
H           1.28174045221874   -1.52317122126899    0.56831834159243
H          -0.71461702764552   -1.99744998230745    0.48296660008278
O          -0.66066718608026    0.16986386793862    2.56443063229029
H           0.28875284902064    0.11586534964803    2.38683555190675
H          -1.21779915960114    1.49860193786598    1.67724043762486
H          -1.05665942002066   -0.58947638944070    2.11310275483102
N          -1.68090515673046    0.30117912264697   -0.94107437663141
H          -1.55012139393283    1.13439154850836   -0.31596170438856
H          -0.77284126935502    0.09601775913533   -1.46986765489474
H          -1.86541088219417   -0.52169149811417   -0.32494393273845
H          -2.44169096861511    0.45795486800589   -1.59352788878502
