    26
        -50.44704217  Gyration_radius:  2.69299200102 Dipole_moment: 6.629
 S           2.62751592103994    1.24403926823353   -0.04140058589642
O           2.55142237375014   -0.13560204790043   -0.53347851151083
O           1.40177036228497    1.60197163952023    0.66566945675255
O           3.04221570221655    2.17831980342100   -1.04852111213852
O           3.76983242605915    1.24499300886236    1.06913065482580
H           4.52822196979475    1.56409137351672    0.58952809108317
H           1.26683372205926    2.19619120003040   -2.14312739368044
O           0.46337642485560   -1.41218428015973   -0.22020887786097
H           1.40391314591751   -0.94487719103413   -0.36545336556145
O           0.39777748041240    2.03260460225792   -1.75935196141764
H           0.57597787891763    2.05490330702869   -0.80297585411432
O          -2.69902268947342    0.11853144838962    0.27789356996073
H          -3.61719914968251    0.38672891542249    0.31629723849624
O          -1.01002317756795   -0.20068014868304   -1.84128991591669
H          -0.50053493009875    0.63318966410550   -1.98607711511982
H          -0.14737835763344   -0.98815023632941   -0.97978864096307
H          -1.73571238451218    0.04362215919108   -1.23631024028881
O          -0.31922294770143   -0.02773140153678    1.74807187042930
H          -1.16341396169693    0.32328160998206    1.42389335309150
H           0.12240553020866   -0.96983296145151    0.65508457975219
H           0.35540284131219    0.66058182328345    1.53477916973333
N          -2.26603623590445   -2.44942064166841    0.95963126271019
H          -1.70266117884952   -2.34149781614727    1.79535091923537
H          -3.01134331408829   -3.10256048078409    1.16571458281954
H          -2.65841224896784   -0.84724864250302    0.50939690396498
H          -1.67570519265375   -2.86326395505776    0.24754192161006
