    26
        -50.44704223  Gyration_radius:  2.69304568433 Dipole_moment: 6.630
 S           1.00365339566963    0.38913512869831    2.70071483453931
O           0.68574918788304    1.60329941062573    1.94184402804971
O           1.04039747322250   -0.77110226444426    1.81576172331963
O           0.19389685874580    0.23145954803930    3.87478966725343
O           2.50138920668487    0.57725295005360    3.21045936847458
H           2.38147331901909    0.88614043465758    4.10328267719385
H          -1.57697273738244   -0.30036413302816    2.90705224415405
O          -0.97762272744711   -1.57391255201244   -1.98581531451478
H          -1.38419280568027   -2.26777290613524   -2.50514175050424
O           0.16939321973167    1.41877076037381   -0.46372261855480
H           0.41048465472459    1.58754389236153    0.55490186163870
O          -1.60816320398845   -0.75494389058687    2.05755182709573
H          -0.68254030418405   -1.02258596329890    1.92134627811027
O          -2.06389716317907    0.29662302372852   -0.32222473502905
H          -1.88031048092153   -0.48202402249520   -0.88105503010059
H          -2.05626895260242   -0.04190462696548    0.60581008859953
H          -0.82527447791174    1.04603907365900   -0.42751432334012
O           1.40965003613067   -0.76645484034355   -0.76370885116022
H           0.74337404067327    0.58600962754530   -0.69842040276854
H           1.44648663618861   -0.88246707318802    0.21583875461510
H           0.70422708497157   -1.35707572558526   -1.07120812395743
N           0.10731931814017    0.40985890752599   -3.44656111514165
H           1.08913103562850    0.31565822031715   -3.21276132802170
H           0.02836090852472    0.46399241626898   -4.45421860689330
H          -0.64652400688925   -0.88113725852892   -2.61707605968102
H          -0.21321953576339    1.28996185276398   -3.05992509337122
