    26
        -50.44976907  Gyration_radius:  2.61806244477 Dipole_moment: 5.419
 S           0.77275747695945    1.18957510801685    2.05939284345842
O           0.03723915614364    0.16526557211721    2.75859180779887
O           0.09019366171764    2.44747701059248    1.88360329469153
O           1.27315472789767    0.68003171611287    0.76164372247924
O           2.07038674766505    1.50156600277345    2.91601879684968
H           2.23643933545523    2.41916604848278    2.72197389731010
H           0.57907845411833   -0.83220031405990    0.68454174890799
O          -0.03639861461661   -1.59971248604926    0.66437052439332
H          -0.26027512813261   -1.72123327875282    1.59286037484338
O           0.74248906775043   -0.08606635526020   -3.16770846069067
H           0.08137887964341   -0.12090403071989   -3.86130947812783
O          -1.92564158580731   -0.02141608030391   -0.42804318945999
H          -1.37521198992571   -0.76192217597450   -0.08765173895949
O          -0.05184399592754    1.38497893218870   -1.24705694308664
H           0.33759090153416    0.86259567511060   -2.04361899506668
H          -0.94499275816002    0.83940489860853   -0.95779346930294
H           0.57351868615507    1.22112748752933   -0.44587777038459
O          -2.26720829316815    1.19203861676507    1.86202627319147
H          -2.24360133493207    0.45274526295034    0.38912764199318
H          -1.70768014552688    0.62624657807903    2.41950693180009
H          -1.72647585758262    1.99456689491250    1.78422150341751
N           0.73653921700409   -2.47536499076090   -2.02543469997831
H           0.09534535417191   -3.16156370210018   -2.40372843147497
H           0.77894225084328   -1.00202145102122   -2.75326386378308
H           0.47234511506991   -2.30870386088294   -1.05687987795744
H           1.66193067231551   -2.88567709905212   -2.01951244509394
