    26
        -50.46827141  Gyration_radius:  2.47324618072 Dipole_moment: 4.492
 S           0.52922150077949    0.60752750093950    1.52198348679243
O           0.71545858133487    1.38230574788885    0.27502738105358
O           1.78194618153533    0.37973784478427    2.19595498389529
O          -0.16559708162491   -0.64233233729770    1.19698874713780
O          -0.37647266360817    1.44080748026453    2.45816229038442
H          -1.28425866550378    1.51023354747849    2.04773362052847
H           1.31264212534634   -2.16040045234031    1.18241690491332
O           2.24377041165258   -1.92122149885832    1.09268000859601
H           2.30763990709699   -1.12977686216376    1.67716122413644
O           0.23617938326148   -1.66937554175008   -2.58236463099598
H           0.24145746579617   -2.62740325726534   -2.54710749806876
O          -2.67597374209305    1.78406930046080    1.29879006436729
H          -2.98840884633748    2.64909239416018    1.57046759228552
O          -1.53368072608093    1.88218486871247   -1.05063747997551
H          -2.35619610741417    1.88341109339059    0.35890394694124
H          -0.64195180295950    1.86600440673020   -0.64551653755266
H          -1.69058500963614    0.96264876168408   -1.31786570430052
O          -1.66812693641081   -0.86820658931543   -0.87907588876381
H          -0.55029259952357   -1.37779210451152   -2.07430416808301
H          -1.09878505344312   -0.76896683590262   -0.06396122843193
H          -2.51524720119752   -1.18572614946610   -0.56271641498677
N           2.05452717988372   -0.39802490979093   -1.05437362393006
H           1.41973360248168   -0.85581435048799   -1.75234834269985
H           2.90993121827166   -0.07137832146859   -1.49128688086413
H           1.53646159408405    0.41483164974628   -0.58928460747619
H           2.25660730431084   -1.08643537564463   -0.26542724488636
