    26
        -50.46365328  Gyration_radius:  2.41762142861 Dipole_moment: 9.111
 S           1.23858641509819    1.45772756915767    0.52914230537160
O           0.16783953359499    1.44337057400182   -0.46680968738145
O           2.38005067441463    2.22860611124022    0.17544675813225
O           1.58676989567802    0.05670118112246    0.89427413790667
O           0.58922076792257    2.05341270451833    1.83400348083112
H          -0.22028555726277    1.53067425965441    1.98068260703476
H           2.64049631746099   -0.18044164864701   -0.47420037421007
O          -1.71073878025081    0.57883441284416    2.14290650503883
H          -2.30102160760421    1.07368698494510    2.71311869432070
O           3.00169130954013   -0.11876752980002   -1.37403400851726
H           3.30353479572194    0.79216463842989   -1.43695229635019
O          -1.25858713096842   -1.75796747038439   -1.35395648704947
H          -1.42096713074492   -2.51324000049287   -1.91986110951579
O           0.52163197438260   -0.25750715227290   -2.44948377863446
H           1.46988329169260   -0.43533916121948   -2.29748396839305
H          -0.55765675838808   -1.20281994456490   -1.82883867380576
H           0.35422663349233    0.51772801627893   -1.87435944259830
O          -2.34960802847144    0.70061556619604   -0.35939746496993
H          -2.06943334527167    0.67412007415171    1.20910589316211
H          -1.49093065794307    1.14254142564787   -0.53507594369246
H          -2.28064785058848   -0.14952604558399   -0.81456547030245
N          -0.33647989640500   -1.56042769598300    1.15103257231148
H           0.53263165315553   -0.88191749938579    1.02481171759543
H          -1.00591956596123   -1.02926207164545    1.72308529053348
H          -0.73296412766990   -1.74482447835809    0.19732736950204
H          -0.05132280462612   -2.41814280984985    1.61008135368068
