    26
        -50.46146978  Gyration_radius:  2.59011488185 Dipole_moment: 4.233
 S           0.35561516618225    0.48191889092522   -0.45368796742331
O           0.51810726195130    0.33490504150174   -1.87974752590847
O           1.39104665442578   -0.45145378750402    0.27495317948653
O           0.69366245399290    1.82779201953126    0.04075085073748
O          -0.95967169961416    0.08994103517217    0.03385954260707
O          -0.06361287053420   -3.47962729734817   -1.93617910726995
H          -0.19037019492626   -4.03350220337792   -2.70795625527826
O          -1.42198346968644    3.12844235396536    1.10253227178098
H          -0.64622556868002    2.76418441706744    0.63124282473648
H          -2.09051270584864    3.27870952125375    0.43249236767070
O          -1.48471631633008    0.83126727974043    2.49568334347627
H          -1.71327259293003    1.74960901339617    2.24419860702205
H          -1.44663929754200    0.37367198240465    1.62271960057643
H          -0.00905081685506    0.95744551584940    2.67930072799929
O           2.05720698360133   -1.86455889086375   -1.72501344987124
H           1.73551971476708   -1.09311541803603   -0.42877268415093
H           1.37925384496848   -2.57864129375813   -1.77302979484524
H           1.69737916416731   -1.12730440820409   -2.24161384683882
O          -1.58483391298419   -1.30497906289824   -2.17939297512536
H          -0.88650719362962   -0.68892882898665   -2.45526175797334
H          -0.72463315388582   -2.74939911692249   -2.00965856474690
H          -1.76882641411277   -1.00745027839727   -1.27598512292289
N           1.06335717681518    1.10814417517360    2.47740741056160
H           1.53447287033630    0.20881120695888    2.39182987224703
H           1.51735717453848    1.71432705166025    3.15300644559079
H           1.04787774175599    1.52979107167520    1.48632201791925
