    26
        -50.45316334  Gyration_radius:  2.76242899443 Dipole_moment: 6.498
 S           2.55907432337688    1.55707217846242    0.45767108890290
O           3.95496705229977    1.78450607827331    0.28012363248810
O           1.68704115463105    2.29290201928951   -0.45977137124122
O           2.20213238258283    2.15611502302235    1.92517694164092
O           2.13670847558493    0.16090399155404    0.55178753313212
H           0.91285130214187    0.18580306353157    1.63313388607775
H           2.91822424581006    2.77180853051786    2.03984016223522
O           0.59788604122129   -1.46079133193805   -0.93640005102615
H           1.38268350688573   -1.06749656289584   -0.51322049715892
O           0.06464682224921    0.33031637124656    2.12288589254066
H           0.28339652517773    0.97992343942880    2.79347246730440
O          -2.87479464607925   -0.55367294464919   -0.62683244006418
H          -3.78957186569330   -0.83473438690303   -0.66112725025068
O          -1.45584563140466   -1.52347263505064   -2.72125725503175
H          -1.59252219309313   -2.38519732562397   -3.11761576625986
H          -0.58799979947855   -1.56177156870869   -2.28140190407983
H          -2.44859869243696   -0.89530974718401   -1.44126718609339
O          -1.12594858753719   -1.96642768043409    1.03590425532535
H          -0.77325793268031   -1.35033720494716    1.69166513401820
H          -1.85770628288748   -1.49867871819344    0.59813423504397
H           0.08613823528297   -1.87391679791636   -0.20079448961693
N          -0.48916320994367    0.96700133074459   -0.45003663395445
H          -0.64042405027065    0.83568363808220    0.56729939709269
H          -0.18290988989810    0.03660924201108   -0.82772453699910
H          -1.33274076732172    1.28871591956645   -0.91415479631092
H           0.36573350149688    1.62444605869614   -0.54549045771129
