    26
        -50.44574835  Gyration_radius:  2.41294043826 Dipole_moment: 4.194
 S          -0.61254664556476    1.40905133068748    0.89795691141513
O          -0.73694171759176    2.73310838954552    0.36917749534945
O           0.38133416156735    1.19793673270557    1.93004364074548
O          -0.02221758868205    0.51043929024238   -0.32648623191799
O          -1.89407536829219    0.76656165394116    1.20772512262409
H          -1.29416925207592   -0.72152081949466    1.76011703551051
H          -0.47043470110597    0.81163931942686   -1.11902670900261
O          -0.50159717464427   -1.27631658061631    1.94383719473454
H           0.14101529790634   -0.57322394580818    2.16262679760634
O          -1.83710555417427   -1.34901610640925   -1.82648329873447
H          -2.62802747332544   -1.87696498749471   -1.70025081480330
O           2.37308381233071   -1.24756896439672   -0.77926973515622
H           3.03319638384345   -1.78477601501836   -0.33675385634428
O          -2.55746140476278    1.21460498269941   -1.26526750082392
H          -2.38966873532361    2.15482246692597   -1.37064612686101
H          -2.51191482711398    1.06933324490983   -0.29305151860898
H          -2.11383799022743   -0.41802651798269   -1.72515075458751
O           0.09338567473078   -2.21932012891848   -0.30112059381523
H           1.01106679455330   -1.78395924965380   -0.54874118733304
H          -0.14990226096679   -1.85486200597963    0.66789790858618
H          -0.60140303161220   -1.84373027377786   -0.92941757401529
N           2.72328444787037    1.09932892989610    0.36480986026118
H           2.45408975528249   -0.31776656826192   -0.38698019948640
H           2.64084570395135    1.85711230316914   -0.30157866206904
H           1.91535782087517    1.17426280135585    0.98748917867502
H           3.55464386255259    1.26885071836378    0.91854360795294
