    26
        -50.46770720  Gyration_radius:  2.51905788352 Dipole_moment: 3.827
 S           0.82155867543104    1.68928100459947   -1.11194896708876
O           1.27699604879059    1.82828373396697    0.26009717802093
O          -0.57540250560837    1.28891633668417   -1.19165153955959
O           1.67674121179474    0.82790339436959   -1.90807876667470
O           0.91558645296279    3.13520667101756   -1.74506266195259
H           0.68154636985405    2.98159773204065   -2.65480264577162
H           1.70905911758998   -0.69928946911311   -1.47237619671573
O          -1.03710470901750   -0.59017538946510    2.35843770915575
H          -1.59374438509915   -1.19097558947721    1.80619617551944
O           1.67123386254389   -1.62790010353548   -1.11555669617170
H           2.30516008316075   -2.13597399985970   -1.62395089160870
O          -2.43185602569357   -2.02048955699644    0.61950771692738
H          -3.33368143945652   -1.72597011584737    0.48557737336052
O          -1.08664194341834   -1.32804650952284   -1.56201902481158
H          -1.95735036697704   -1.83210776570745   -0.22664669753628
H          -0.18328156480972   -1.66747120864233   -1.50007728199963
H          -1.00085782992345   -0.35763847634412   -1.51279043635383
O          -1.33612257058994    1.83982760942063    1.29526811903935
H          -0.53759939958190    2.32720712568163    1.51732928950841
H          -1.23407641070153    1.64123281666648    0.34379406002967
H          -1.29316541764115    0.32357593343183    2.09067627948006
N           1.32955365423273   -0.55880631082666    1.37712838373948
H           2.05321674614259   -0.71346958576644    2.07075892440421
H           1.45041667155870   -1.19760769040839    0.57364388070969
H           0.32335424433398   -0.66078671565900    1.82963366247603
H           1.38646142019344    0.42367614918690    0.99691306382949
