    26
        -50.45526457  Gyration_radius:  2.81497841969 Dipole_moment: 3.539
 S          -0.23082623914428   -2.28555322174379   -1.74971590345695
O          -1.57961198816136   -1.98898118022758   -1.31072115674318
O           0.65289603402026   -2.62361389985705   -0.63295005229251
O           0.35638556363956   -1.26192160770657   -2.59343073572610
O          -0.34346382889407   -3.59301090382566   -2.64087702430846
H          -1.02484406721737   -4.07427209357105   -2.18214391909270
H           0.84653281507701    0.09934533846385   -1.99929192105405
O           0.23689980624230    0.09799469068583    2.29306516433211
H          -0.48033304977266    0.00206866845584    1.63557642074590
O           1.11000756156921    0.93126765349766   -1.51222670509783
H           1.24529488671689    1.59723729396578   -2.18774494972004
O          -2.30522469287401    2.46462802814597    1.02501439435396
H          -3.06879654279731    2.22659639056541    1.55275322843206
O           0.07393131572830    2.79527044753723    2.26702903816773
H           0.28528168831462    1.06176664800542    2.45969718716554
H           0.59998653863549    3.36055274529818    1.70034996799048
H          -0.82792376268117    2.79043223658800    1.87938942520992
O          -1.17388579648050    0.23663765495739   -0.01130871279623
H          -0.47110210044974    0.62139724248566   -0.55711682040158
H          -2.02849967212464    1.64942925423177    0.55991900425956
H          -1.44610026166421   -0.59095841299900   -0.47093890846768
N           1.94891072691300   -0.69763443857418    0.50340346530127
H           1.92796929640208    0.05282025205728   -0.20391473474880
H           2.89525512664751   -0.93950877139318    0.77307089527378
H           1.34876608912019   -0.38924582556796    1.34399593357152
H           1.45249454328810   -1.54274418956531    0.05911742900085
