    26
        -50.45568725  Gyration_radius:  2.56665626755 Dipole_moment: 1.978
 S           0.42033174205783    0.31904188005439   -0.86300216244363
O          -0.98314080817311    0.16101291593757   -1.19638304880239
O           0.81761412828881   -0.68765617614759    0.15362183986796
O           1.28177863138644    0.04478110652157   -2.11156368528276
O           0.73477282668303    1.65858312664141   -0.40186967207762
O          -1.27435057393178    0.79363102898231    2.89139083715723
H          -1.88891791028567    0.06458089878323    2.99138684598395
O           2.23986301007672    2.24358042209577    1.61707054247512
H           1.68884065383147    2.15827789538265    0.79587061239331
H           3.15508647141951    2.20544272116900    1.33328470355432
O           1.03540992692573   -2.48229406365414   -1.89825778783991
H           0.09020621309044   -2.60264796601522   -2.17621442553285
H           1.26974798229204   -0.96009545610114   -2.19091377416459
H           1.00995064544935   -2.31182388039006   -0.94734187978924
O           1.12776856871975    0.12220253605971    2.45606206456506
H           1.63826614366320    0.99510924160707    2.28428124934706
H           0.16686314158008    0.39310213364068    2.72779271899850
H           1.01632091357467   -0.29019503651049    1.47017847138449
O          -1.84526340168430    1.89043792105470    0.59497947376283
H          -1.68202147518974    1.21880311246821   -0.10136522029692
H          -1.53950327348538    1.27054737973243    2.05378687690110
H          -1.18777731670873    2.56979240080449    0.41639875715858
N          -1.58014394195662   -2.32285411215460   -2.45382103703850
H          -1.85145779475768   -2.21011936093037   -3.42242417997035
H          -1.55037521747049   -1.39235502353401   -2.03316932428414
H          -2.30986928538791   -2.84888564549081   -1.98977878601552
