    26
        -50.46111891  Gyration_radius:  2.71404554493 Dipole_moment: 3.940
 S          -1.65947105035304   -1.59406851645288   -0.89155485061530
O          -0.26536511239617   -1.88281089271869   -1.15025800735931
O          -1.99667023166739   -0.19537047500539   -1.14228200641451
O          -2.08748671421921   -2.01264555335477    0.43470501875468
O          -2.49978545790713   -2.44428746120206   -1.93050021848471
H          -3.38989063257585   -2.17350327772590   -1.72979027007047
H          -1.46170356686192   -1.25959923105350    1.68557096441732
O          -1.00795116119780   -0.73911936112883    2.40410529441807
H          -1.56312169825486   -0.82285279148270    3.18028771716692
O           1.83352642136522   -0.32595816569048   -0.66608871318893
H           1.18701837476967   -0.86621060512774   -1.16351411330789
O           0.58881557802320    3.53191844726522    0.12855451557296
H           1.05955789707878    4.09148956223040    0.74730654773453
O           2.35830894008227    2.26277126299886   -1.47401689367120
H           1.25861972122150    3.19527725120571   -0.50439868038116
H           2.34634765749620    1.32831441583466   -1.20457913988737
H           2.20699890186536    2.27013377671741   -2.42063770171408
O           1.19155732932549   -2.11819686614825    1.21699916933056
H           0.62656383416622   -2.36466739938390    0.46752369299544
H           2.05412039998046   -0.90956639072414    0.08579056470476
H           0.59007582525170   -1.75971681650197    1.88167552836938
N          -0.27753191957204    0.97946870549615    0.42501444781065
H          -1.03535383030643    0.66155007521291   -0.24387936575035
H           0.61347986289116    0.54940452544762    0.07788831427904
H          -0.16487544002793    2.01140987075029    0.43342333959875
H          -0.50578391815224    0.58683588051865    1.35265485567333
