    26
        -50.46021490  Gyration_radius:  2.60101335304 Dipole_moment: 5.795
 S           0.69134301844542   -0.03779372451953    2.09870318191579
O           2.02859081265806   -0.23108174953726    1.53945874766478
O          -0.32301803499660   -0.74403798014904    1.35282097601702
O           0.39997710876135    1.37760390219025    2.26876554009262
O           0.71566329408025   -0.66645768023290    3.54862381902992
H           1.30381491692033   -0.08085361767100    4.01440678761212
H           0.03885662407785    2.07495838296715    0.89660839796135
O           1.28368120595667   -1.21848473472073   -2.42751412995215
H           1.94213347914661   -1.91290922588596   -2.48106762720697
O          -2.92366706099344   -1.07088431034987   -1.56308158890329
H          -3.69052320663017   -1.55808711152160   -1.25881586392318
O          -0.10404082054759    2.43679296124586   -0.02189932015538
H          -0.15110348675100    3.38965181735620    0.07276684997602
O          -0.55957760545018   -2.21621184676149   -0.93914799947614
H          -1.42622966636503   -1.88809637732471   -1.26440828553493
H           0.51368547849998   -1.62376823596898   -1.91307401439708
H          -0.44524394865980   -1.80732009407312   -0.06414449187202
O          -2.34894780616417    0.71659489861378    0.34019324346927
H          -1.72349052188884    0.15587365053925    0.83592236250911
H          -1.81091370122851    1.44638766445661    0.00921199998794
H          -2.79143048080716   -0.34176572484684   -0.91337021268836
N           1.88626287073455    0.77392014942798   -0.84110653402745
H           2.73426159541660    1.25211359266810   -1.12764237873277
H           2.01653644846030    0.33078777669084    0.12601364430687
H           1.10193387176781    1.45013794639072   -0.75300181492420
H           1.64144561563847   -0.00707032895823   -1.53522129877041
