    26
        -50.46021503  Gyration_radius:  2.60114379949 Dipole_moment: 5.810
 S           0.87573943565586   -1.75957551684714   -1.00988378994509
O           1.32970441556547   -0.81268969955693   -2.02757756614053
O          -0.43440784567535   -1.43148445976537   -0.49985678972917
O           1.87647214268889   -1.91803163720718    0.03439295682567
O           0.75017450950916   -3.16274444113902   -1.72648325435638
H           1.65649474007486   -3.36798700633984   -1.93228829436028
H           1.88877384545976   -0.69309797269729    1.03407825279175
O          -0.84899098989688    2.62583825524557   -1.18204628527165
H          -1.04606051642435    2.84776080547810   -2.09337925869239
O          -2.87353223050834    0.45013269021820    1.92321906431708
H          -3.60874541512475   -0.12341792731907    2.14342426009166
O           1.86895452252301    0.15217553756257    1.56326673208810
H           2.62057312234390    0.11118293039946    2.15695417871460
O          -2.29974789451503    0.55606821099108   -0.71313022404499
H          -1.69519007612652   -0.20516577542463   -0.74348080373475
H          -2.60720739929587    0.60246500457351    0.21841543140168
H          -1.47227245191269    1.86303902618798   -0.95520440176520
O          -0.65814438361995   -1.02893858667143    2.15548658753208
H          -2.05858858398179   -0.06622272645321    2.12398812412185
H          -0.62978244749303   -1.33344306770716    1.22929625176296
H           0.13760438711416   -0.49269931808478    2.25937887894936
N           1.45864269211603    1.45558686712574   -0.78790525567827
H           0.53151025796075    1.97946613850116   -0.92041602557533
H           1.58030158668689    1.16407850416687    0.20235812605432
H           1.41864634231907    0.55530759713519   -1.36789091334168
H           2.23907821451595    2.03239654759065   -1.08471598203808
