    26
        -50.46422814  Gyration_radius:  2.57401391844 Dipole_moment: 3.113
 S          -0.20982636006341    2.13614236278625    0.85751782644810
O          -0.34117042250983    0.72311213817709    1.22421094367736
O          -1.30182179203623    2.60387843772132    0.03429255049600
O           1.10704353659380    2.39134792137002    0.30797076315665
O          -0.32944057765857    2.95474724060959    2.21227037467037
H          -1.10165303054032    3.47977240063945    2.02893189498297
H           1.76194110751941    1.53358310012607   -0.86366886652062
O           0.78360027973279   -2.90838892302142    1.75724746797014
H           1.03110781460212   -2.80583151707046    2.67683014969009
O          -1.35882872966161   -1.50864162456336   -1.47840598397889
H          -1.71851489419853   -1.92758089774837   -2.26075347505326
O           2.05341162716082    0.94892981293330   -1.61233028844457
H           2.71023999017433    1.45259886274813   -2.09479718945468
O          -0.78067531853111    0.98627031803183   -1.99846003468276
H           0.18385624527630    1.04500938171222   -2.05596742087184
H          -1.28830016141087   -0.53833857127779   -1.68758257354446
H          -1.05817604640257    1.62941806851241   -1.31424082277316
O          -1.58506089642255   -1.71709898998198    1.37114365767175
H          -1.31812928959931   -0.79367562028166    1.50812528011776
H          -1.78152936857929   -1.77956513000047    0.42658395730186
H          -0.16001825257142   -2.62046997646813    1.69683749064342
N           0.97545377535824   -1.07219140555285   -0.15965276199313
H           1.25361933021795   -1.82634251119643    0.50099457187906
H           1.72714043221210   -0.64890314822071   -0.71359071345873
H           0.22581257732124   -1.43497450282804   -0.77934500103835
H           0.51991843401714   -0.30280723716367    0.41583820314286
