    26
        -50.46422812  Gyration_radius:  2.57424442745 Dipole_moment: 3.115
 S           0.81340599567267   -0.14773492870982   -2.15847644804755
O           0.66502977423242   -0.92057764170125   -0.92199452747996
O           1.86070506081974    0.84492904248515   -2.07559650477838
O          -0.47183038118330    0.37170941127181   -2.58263059203027
O           1.30171217028622   -1.17683974952375   -3.26403408808271
H           2.14014675642488   -0.79296304134492   -3.49919177444787
H          -1.45914110831261    1.18487634420026   -1.63342193560185
O           0.75997231414723    1.02365606924767    2.16427951720924
H           0.90148946557529    1.66076695119242    2.86500442747795
O          -1.97666717440302    1.69998168855489   -0.95953045291408
H          -2.55965164979810    2.27153764178076   -1.46087233692887
O          -1.19237062754705   -2.60694987203334    1.98635182284677
H          -1.28289661857436   -3.46545419703600    1.57141650732746
O           0.71041037673338    2.24760203081350   -0.14443481182904
H          -0.21294108406248    2.26335140643551   -0.43459778442127
H           0.88880433125486    1.51516896632447    1.30876272041899
H           1.21891172425226    1.81179835961513   -0.85879447215294
O           1.31412093273599   -1.73525959890041    1.61547537231660
H           1.29059880408549   -1.59825626892942    0.65454507280833
H           1.36198633831382   -0.84545071137894    1.99040031657193
H          -0.22471688346302   -2.40560540021668    1.98433253458525
N          -1.20835676853497   -0.23496857432536    0.77890519738599
H          -0.65425315091054    0.28694087213527    1.48477837307243
H          -1.56296231529223   -1.10987638937763    1.21610434387562
H          -1.90857525524423    0.37671139443720    0.34676054379474
H          -0.51293102723064   -0.51909379508967    0.02645898902889
