    26
        -50.45490179  Gyration_radius:  2.54767547519 Dipole_moment: 5.613
 S           1.56193930024154    1.76189248678126    0.20967589266818
O           1.02729248630497    2.71385963824547   -0.72929597210428
O           2.49528273079136    0.80850471299283   -0.40652510373570
O           0.57625074048729    1.06451967187974    1.00807540343466
O           2.44109325496535    2.61186655117097    1.23545084155272
H           2.67419119050775    3.37192926769639    0.71161212507912
H           0.32619327029807   -0.32808464322504    1.71508714130930
O           0.27614586239024   -1.26670757983914    2.04342355526717
H           0.33769707544232   -1.21481531072826    2.99788180063358
O          -0.57855742037084   -1.25552587207119   -1.81292987212556
H          -0.65717584793409   -1.40434193866419   -2.75582421334924
O          -2.95370865842311    0.88361033630679    0.42155569931022
H          -3.83590520878229    0.85935714062729    0.04803927371814
O          -1.05902179953269    1.22943018739809   -1.49768425588614
H          -0.31965595814556    1.81631336072615   -1.25047393471636
H          -0.74735606990429   -0.25806338126431   -1.68303902482790
H          -1.69543468998232    1.26802265879277   -0.75198059349879
O          -2.06343315769720   -1.66948854067398    0.56092379353247
H          -2.69853367893203   -0.04995821571721    0.58686207232366
H          -1.66081069718045   -1.66954133427287   -0.31906030771893
H          -1.32531783261829   -1.60204747244260    1.18638510540549
N           1.58906314652509   -1.56914216178259   -0.30446313398226
H           0.77356296000201   -1.54582096770181   -0.96958824133935
H           2.03337688823636   -0.57119441276104   -0.34470959789431
H           1.22047820859430   -1.69981167827999    0.65400065965749
H           2.26234388471884   -2.28476251317537   -0.55339910271600
