    26
        -50.45406806  Gyration_radius:  2.52632167944 Dipole_moment: 5.854
 S           1.30591262108938    1.68660777761948    0.84285286224211
O           1.02114563147159    2.84130744741493    0.03393655071069
O           2.45132459839503    0.90473046356819    0.35768471860223
O           0.17568212151723    0.81955353166359    1.10312062368209
O           1.75650230242792    2.25339620719637    2.26790458308455
H           2.07593788649260    3.12051135094320    2.03986432950060
H          -0.06155425781104   -0.64787201133110    1.62018920654675
O          -0.08778023078514   -1.62147538549607    1.83379261231195
H          -0.18848474856420   -1.68024293777221    2.78443996660934
O          -0.08535617378166   -1.08930441176168   -2.01077813037389
H          -0.32090010947072   -1.44975901131532   -2.86620950732096
O          -2.95648219205173    0.79146826719536   -0.22281941327229
H          -3.67225760719537    1.05107830265533   -0.80467904910836
O          -0.81379687932633    1.67230917183462   -1.55535678217702
H          -0.18655633921075    2.17361318350439   -1.00443683545894
H          -0.38654832864558    0.83053301697198   -1.76183755585135
H          -2.14467646371106    1.21251877054936   -0.59445955366081
O          -1.93348800484867   -1.66409765163464   -0.31095324304580
H          -1.44571700977583   -1.76753537532466    0.51870961690676
H          -2.40537779396284   -0.80197427109051   -0.22267192575215
H          -0.85047123278722   -1.31325497178670   -1.38718627524068
N           1.76712930587331   -1.49816981973037   -0.13591909763259
H           1.14661630297920   -1.41922717184012   -0.97610591284080
H           2.11367272493906   -0.48329505764552    0.07985162721080
H           1.18089616737677   -1.79296048240081    0.66696723437843
H           2.54462769935985   -2.12845893198817   -0.29590065006074
