    26
        -50.45966328  Gyration_radius:  2.59381802584 Dipole_moment: 3.958
 S           0.33541391453269    0.61239601967283    2.32943566032851
O           1.50373048296433    0.30164916167233    1.53861263396267
O          -0.66324965345634   -0.45091797955674    2.23135253412564
O          -0.23243873146547    1.92267839260762    2.07446535693617
O           0.80847320378116    0.63637393473454    3.84805668418081
H           0.06160392597763    1.03420902510528    4.28442113993889
H          -0.71734031760734    2.07115053171257    0.55386624262845
O          -0.92125007935084    2.19608585177717   -0.40861307474777
H          -1.48511895337371    2.96951665264809   -0.45864476673944
O          -2.09337578018383   -2.22346196396819   -1.32782265338857
H          -2.18232164414767   -2.77891697937705   -2.10339599543010
O           1.47767933725482   -0.64656390674305   -1.68037885145520
H           2.33306068673556   -0.96873820408338   -1.96620837823252
O          -1.20115661795652    0.10167654547077   -2.18410792817154
H          -0.26513323779090   -0.12818804272326   -2.26268929492076
H          -1.93293808216618   -1.30484060425553   -1.66416339604825
H          -1.22805193550870    0.84307128533464   -1.55482135939885
O           1.79580302340332    1.70855446989413   -0.67336322722301
H           1.83674243908314    1.33556112688194    0.23253876608144
H           1.64325933508350    0.28748928310642   -1.33905190197102
H           0.91430316402559    2.10967023405674   -0.73473183211075
N           0.05263197557691   -1.94185644513309    0.25045559223959
H           0.51800767440430   -2.76816113011769    0.60984342830302
H          -0.81087542709473   -2.19224361963762   -0.29312461913512
H          -0.24078719504734   -1.31985736249939    1.07795958125981
H           0.69332849233520   -1.40633626658187   -0.37989032101269
