    26
        -50.44529037  Gyration_radius:  2.48639312872 Dipole_moment: 3.298
 S           1.42844639067293    1.57257578929709    0.85857908831851
O           1.38810473189511    2.30810104043609   -0.41779842469980
O           2.59433989559296    0.75949415542032    1.02911695986208
O           0.17035218359789    0.86577428329378    1.04196880520028
O           1.47543177552113    2.69269202865266    1.98465753434937
H           0.67298668479695    3.18533335059244    1.83882518342414
H          -0.20609712096152   -0.58794518664195    1.67187875599456
O          -0.50650584534331   -1.47774261078165    1.97782122573661
H          -0.92733971286643   -1.33579228222200    2.82682610158310
O           0.15674893454836   -1.11555628930464   -1.93564837097675
H           0.61923542757253   -1.32612075307880   -2.74770904511098
O          -2.60424517808054    1.10635974312827   -0.39340981394490
H          -3.38616061483349    1.17323033061884   -0.94490444083698
O          -0.45075564532118    1.36493021852924   -1.72905445398613
H           0.35438162133297    1.82220415634466   -1.16307688892255
H          -0.19111215279055    0.38027171584299   -1.82990028863258
H          -1.29108540870562    1.36050364963845   -1.13181942337620
O          -2.08301371232617   -1.45052143010068   -0.23061085249211
H          -1.59112558777096   -1.58084163148877    0.60527836851452
H          -2.47036459708796    0.13205798947533   -0.21374236790104
H          -1.41487424101891   -1.52618285985668   -0.92531360170942
N           1.72178685423977   -1.70685749187234    0.00922121460192
H           0.80280455043210   -1.35719220359266   -1.15424660351709
H           2.12290642140249   -0.83053933539885    0.35399354133589
H           1.13488695387296   -2.06682206819671    0.75505353592395
H           2.48026738163519   -2.36141431873672   -0.13598574873401
