    26
        -50.45708427  Gyration_radius:  2.51436833452 Dipole_moment: 8.094
 S           0.74817019204254    1.79338832708918    1.14330063539283
O          -0.38510849511579    1.55292040133087    0.28971238328960
O           2.01426157882240    1.41724850710409    0.50424589362104
O           0.62302707561792    1.17141168685067    2.45326907708054
O           0.82999194408383    3.35268219401688    1.38761637453691
H           1.56834647391730    3.42667988784551    1.98366181033525
H           0.17323706490941   -0.31102621249564    2.20986975537733
O           0.02096121644538   -1.27622983172333    2.00032454579453
H          -0.11645265550642   -1.71121377767404    2.84379498314149
O           0.14324951265423   -1.56281386252516   -2.02386254832969
H           0.04900507051320   -2.29089974565421   -2.63849485549981
O          -2.79060361622938    0.66210828137138   -0.67807246469510
H          -2.17797940290159    1.12167385843465   -0.08520082466197
O          -0.68652282547103    1.15123918479414   -2.43512024004127
H          -0.44736514076264    1.46966704261531   -1.55102824875542
H          -0.31866299789956    0.26059333544284   -2.49360510879570
H          -2.43246819168024    0.85852384021946   -1.55976106968056
O          -1.68628121281279   -1.69994617434430   -0.22564013265161
H          -1.23534952928003   -1.54239599546865    0.61644496540178
H          -2.23302916132878   -0.88836005118558   -0.38520270900579
H          -0.62913123935520   -1.63714090924328   -1.37216065889649
N           1.81283166335895   -1.08533674307429   -0.00560990181675
H           1.28385077480408   -1.26615483439490   -0.89598521880574
H           1.95485225020817   -0.01845649799292    0.12653981213639
H           1.21189156894388   -1.38064095540977    0.79174340771332
H           2.70527808202532   -1.56752095593099   -0.00077963218601
