    26
        -50.46161839  Gyration_radius:  2.73556416404 Dipole_moment: 3.824
 S           2.27965641174313   -0.60366343047253    0.90947144328902
O           1.26456351748368   -0.65168311489075    1.95947618974921
O           2.13479198277518    0.55407178825626    0.05560089519649
O           2.33238932249758   -1.85417978594514    0.16608358122569
O           3.67510757676269   -0.45829792780993    1.64631736285822
H           3.70247793248441   -1.24762847255016    2.17783518961149
H           1.02896946452857   -2.23635166644805   -0.65732676816944
O          -0.07230793120962    1.78157145050339   -0.90099091864834
H           0.75947571132728    1.78341544577540   -0.39805346455103
O          -3.26602086855518    0.40482164582823    1.36105134604923
H          -3.38264295782267    0.64268067470258    2.28202302798982
O           0.17379207351780   -2.38355819894689   -1.14779594296031
H           0.13908915242990   -3.32114079742182   -1.34138505422707
O           1.10759381959019   -0.03501988358527   -2.43216595853947
H           0.18299184301549    1.30548017583954   -1.72271369530144
H           1.75043664734176    0.08127496920866   -1.71197510082318
H           0.73191059147883   -0.91455973568070   -2.29295918805549
O          -2.55317083388277    2.62026528605755   -0.01934659676057
H          -1.63941269500628    2.47286949653122   -0.31898271049304
H          -3.03483515308072    2.95381291453664   -0.77776168976306
H          -3.13658626357644    1.24643796624278    0.87470462867114
N          -0.85681419590545   -0.43974698775859    0.46246921513586
H          -0.09244601643866   -0.52934827894733    1.19179887867725
H          -0.78338804110600   -1.26136889103488   -0.15810640434763
H          -1.80295304203739   -0.33350764061628    0.88382273976559
H          -0.64266805835290    0.42335301863355   -0.09109103561415
