    26
        -50.46306760  Gyration_radius:  2.54496844574 Dipole_moment: 3.893
 S           1.64749847737540    1.51496111703445    0.23730437207956
O           0.20914953694808    1.61479313379516    0.08475464771060
O           2.24923691224768    0.70524255534135   -0.82155685816820
O           2.05397732523010    1.06086305959533    1.55210143267017
O           2.21751305159603    2.97997387675138    0.06749437311371
H           3.09866454785424    2.87842350107145    0.41140502184094
H           1.47853255403895   -0.41220047734203    2.11147971625964
O           1.03977750954092   -1.29418710195832    2.13490586051117
H           0.09124708325931   -1.09934757609644    2.10501897168908
O          -1.02473753579292   -1.74145000853469   -1.11217466829770
H          -1.76720873719767   -2.33664703710444   -1.22152364454142
O          -3.45862675659972    0.79079464994001   -0.12826983445784
H          -3.73385142463025    1.67403468525861    0.11982923965363
O          -1.48351961042936    0.98295066201186   -1.94117927824226
H          -0.82818196438866    1.36851933637054   -1.33188851713107
H          -1.23258148141345    0.05480626214793   -2.03058421403435
H          -2.85557388514288    0.90442250531639   -0.90081628345761
O          -1.32192220703248   -0.30233838898808    1.06695582227834
H          -0.74209602241406    0.45037136203798    0.81489535535707
H          -2.22632647650971    0.02619619435263    0.87530744924585
H          -1.19334986606919   -1.23692351474485   -0.26645774458392
N           1.56858378873836   -1.74636352004704   -0.38102011962593
H           0.65138685959947   -1.91113089461835   -0.83923918276638
H           1.90493046961274   -0.76214825657249   -0.64324522123910
H           1.40566533441319   -1.71630168356473    0.68115456367260
H           2.25181250698699   -2.44731445140133   -0.64465125958287
