    26
        -50.46161849  Gyration_radius:  2.73536595072 Dipole_moment: 3.824
 S           1.00100103697940    2.31625259957116    0.13446506997345
O           1.72184709969811    1.26574027805291   -0.54915551201723
O           0.49072304062289    1.88656412654864    1.43459088403288
O          -0.05256320792572    2.90443588545141   -0.67987161491209
O           2.04407605143336    3.47291468251350    0.42649482720876
H           1.50402709081176    4.12092769820356    0.86770272220539
H          -1.24005778885007    1.93613798082373   -1.09863840695454
O          -1.45518155615346   -2.28889345628446    2.30765182059340
H          -1.21756165897777   -2.25845171935441    3.23555591493558
O           1.25026355421757   -1.38867228885256   -0.70527084658920
H           1.81335690206769   -0.62997765049147   -0.47689770307768
O          -1.93063839968350    1.25198710278774   -1.31893242258322
H          -2.71769521357345    1.74086124117282   -1.56239114447342
O           0.32198312372052    0.15936204202369   -2.64888035454945
H           0.92093964151768   -1.14131870652292   -1.59830265726319
H          -0.58077452518874    0.45309675038767   -2.46751285012158
H           0.89071492249913    0.76949476974499   -2.14920435639489
O           0.54791693544755   -3.49208960202093    0.94311145506032
H           0.93765640078496   -2.80808319303534    0.37148957369447
H          -0.77375582494564   -2.84031878014938    1.86812245034540
H           0.42737407625751   -4.26689864000906    0.39222747838244
N          -0.80201009226621   -0.23993436656144    0.66464607633473
H          -1.48841654448450    0.13810163470959   -0.00722534862213
H          -0.06209830378231   -0.76050927834988    0.13669026882273
H          -0.32242649242677    0.58810900465019    1.12139220112059
H          -1.22870026779680   -0.88883812495862    1.35814246481585
