    26
        -50.46161840  Gyration_radius:  2.73494461438 Dipole_moment: 3.826
 S          -1.27997167490211   -2.13674447815107    0.41779204261254
O          -0.34733809963394   -2.28926869147968   -0.69676879548877
O          -1.98848475448071   -0.87714056006345    0.37452410182877
O          -0.62324628436228   -2.37493866266127    1.69482506886902
O          -2.36535721312154   -3.27901876914739    0.24909314249500
H          -1.83313856121721   -4.06720454901626    0.29125179783401
H           0.53084717558660   -1.35766362002288    2.09061892279875
O           1.22852609775312   -0.66520419255227    2.25558576164185
H           1.81875184375529   -1.03683810340533    2.91228111907808
O           2.42096829748458    1.10229406660757   -2.36811818315407
H           2.46405646669491    0.70016458952356   -3.23694762087279
O          -1.15987658179739    1.59373494988281   -0.32785443937919
H          -1.74467362727184    0.82334189820236   -0.42629452525665
O          -1.10500904712327    0.94497273533008    2.24449845822571
H          -1.59380624354003    0.20227109732087    1.85111862045338
H          -0.24941720368138    0.57465470429076    2.49935025061675
H          -1.15156596861595    1.72444236457621    0.64660679174241
O           0.32632345735979    2.81454771675397   -2.31193447589642
H           1.73880772149895    1.80445174262310   -2.42457297086784
H          -0.31961350825220    2.43676644435501   -1.69023655073461
H           0.40295041707198    3.74343482012487   -2.08916791995486
N           0.99019086457850   -0.07408463387851   -0.39526664003327
H           0.22301567909233    0.63886962196905   -0.38103792524051
H           1.37801009632628   -0.16692434121827    0.55681957284472
H           0.53770995699287   -1.00104786588235   -0.64035630262452
H           1.70134068378208    0.22213172594143   -1.09580929151834
