    26
        -50.45568735  Gyration_radius:  2.566782131 Dipole_moment: 1.979
 S           0.80533423284174    0.14616496840508   -0.59309393823177
O           1.71971857790903    0.52109205360723    0.46947050448466
O           0.58548632530908   -1.28680715190640   -0.65773527286970
O          -0.49132289420422    0.85268856980957   -0.43693113900918
O           1.41393839578826    0.63585875162533   -1.92205619065985
O          -1.14030235918446   -0.44122790367648    3.02179231530473
H          -1.91291840720497   -0.97141864897649    2.81888599512840
O           1.41034399315945    2.51032440465828    2.09151651599663
H           1.70654345532335    3.30883258497046    1.65073368691826
H           1.67364907510038    1.75356878643738    1.50564249640540
O          -0.99741764309551    1.76658966714119    1.79053801717817
H          -0.83047727887476    1.39846221148792    0.79498017194746
H          -1.10471601787434    0.91094738489265    2.36222084343844
H          -0.08932869369160    2.17207726122493    2.04162350135610
O          -0.82537394119191    0.56374630100088   -3.13554448728866
H          -1.19967122209371    0.79760235148822   -2.27578894666171
H           0.62790697697516    0.64368067297804   -2.55321685885907
H          -0.95644966480781   -0.41560988824529   -3.22947929385937
O           0.87748394816915   -1.68304907304260    1.93099697554683
H          -0.35233742662205   -0.95187353810581    2.67885537572962
H           0.73061728009608   -1.69363401929556    0.96097638642902
H           1.65936785207103   -1.13271438626637    2.03814946563554
N          -0.89839939814475   -2.10713004977040   -2.94523382635853
H          -0.35277132017044   -1.99988257744358   -2.08822852945817
H          -0.33909375699623   -2.64324384722074   -3.59660389803012
H          -1.71981009862967   -2.65504488575617   -2.72246989020144
