    26
        -50.45568726  Gyration_radius:  2.56669158211 Dipole_moment: 1.977
 S           0.70241416234740   -0.48108170148775    0.54693352641725
O           0.86007459142571   -1.03327443660908   -0.78575412376049
O          -0.72185646296378   -0.13871036216765    0.78987204537620
O           1.08242605273146   -1.54544508813344    1.59521429846974
O           1.54898756761076    0.67564785234751    0.77317497555790
O          -0.80590801116478    2.64906013409704   -1.71679478646745
H          -1.42255598237599    2.24858579029064   -2.33207444989476
O           0.82765009080679    2.86787180227717    1.93823045021671
H           0.87899441946149    2.73742102530865    2.88689764984169
H           1.24398252060652    2.06805269919939    1.52320719143237
O          -1.31657819402487    2.24794294975835    0.73043068639318
H          -0.53230905338668    2.65334045746227    1.25262976219310
H          -1.16341432704699    2.49034829218665   -0.26369673757787
H          -1.11844017745965    1.19298571158852    0.77775684409753
O           1.40131037352762    1.27639072254042   -1.93277577588456
H           1.20469766915224    0.35566559706572   -1.65665548041351
H           0.06784577804622    2.18278831038088   -1.85261884305598
H           2.01572478869770    1.59024776138106   -1.26218949650299
O          -1.12864487281910   -2.78605690769647    1.34145110654934
H           0.28546002104172   -2.16267874983344    1.60486846088085
H          -1.49919501044671   -1.91088978554593    1.16614229210801
H          -1.00497833638883   -3.20973991378641    0.45243577227293
N          -0.48996142300547   -3.51262684007909   -1.15646384820526
H           0.15050200805890   -4.28755580426502   -1.27398010500037
H           0.05835268498211   -2.65180894317608   -1.20123518186863
H          -1.12458087740884   -3.51648057314280   -1.94500623317959
