    26
        -50.45568726  Gyration_radius:  2.56662049721 Dipole_moment: 1.976
 S          -0.43461684287327    0.55342012331552    0.72724763300608
O           0.74101612342010    0.66015629440232    1.57127564137757
O          -1.41547555864285    1.66230613961290    1.15663591041302
O          -0.08391918005828    0.82532009540151   -0.68974063585181
O          -1.08364217708789   -0.73970119104418    0.83883965098682
O           2.50805382375099   -1.87578951102165   -0.89538238485949
H           2.05837225300309   -2.43467404120993   -1.53148888246346
O           3.00951628658598    1.68654035766483    0.87559392552332
H           2.95037099465222    2.63953567696175    0.96435903877448
H           2.18359298962505    1.31605478984873    1.28286689042126
O          -2.68518495329984    1.58708085946063   -1.05112574638193
H          -2.03517110333740    1.74852155256627    0.36616749996841
H          -1.82782731374836    1.36185011713634   -1.43607351722032
H          -3.17311343888195    0.72779528038345   -0.95774685757044
O           2.28806611075601    0.61261266876194   -1.30772556552889
H           2.45645220141353   -0.40200217053009   -1.19513961219637
H           1.24084786521039    0.73029217589507   -1.09841890375897
H           2.73615039362411    1.07218206104375   -0.50759676967823
O           1.13739909230090   -2.07518958762361    1.31466227523575
H           0.23859850536151   -1.72402233468046    1.13719816008496
H           2.03869568271056   -2.01058219658690   -0.02313494609762
H           1.50416913826613   -1.45423905428936    1.95153351028844
N          -3.59169479451818   -0.87308560474749   -0.50234261614290
H          -4.36935994127413   -0.95768814776413    0.14000104704565
H          -2.73330873525206   -1.00277145142769    0.03619326302376
H          -3.65798741169341   -1.63392290156791   -1.16665801842987
