    26
        -50.46846777  Gyration_radius:  2.39947881603 Dipole_moment: 5.642
 S          -1.44202068744519    0.17744224497219   -1.09672406902994
O          -1.47304123694959   -0.95852610393831   -0.14352366492430
O          -1.88391053906769   -0.21173817298078   -2.40850251223911
O          -0.10189287110068    0.75290121662982   -1.10944868326568
O          -2.41276613841578    1.25503795998395   -0.52619854709080
H          -1.99017875955068    1.58957706617101    0.30105582920576
H           0.94376907060671   -0.01547024839044   -3.14211851561377
O          -1.29637213313801    1.96555060944012    1.78498802865389
H          -2.00220428539861    2.26114477555742    2.36263815059454
O           2.07827719083430   -0.54217271530229    1.26982035534184
H           2.99024297741631   -0.53959430964888    1.56297306364267
O           0.55816624724213   -0.89628795169925   -3.17265977082569
H          -0.40690766571747   -0.72940867151444   -3.06248931544258
O           1.34787693867459    1.89231649175131    0.72817028182921
H           0.85214983060564    1.58723875882317   -0.06567687124242
H           0.65953534412006    2.23927108630438    1.30764625993300
H           1.84732898406161    0.41659866952167    1.08075018322765
O          -0.59847229987081   -0.49604650812292    2.30500409509308
H           0.35105566309382   -0.61381034332242    2.16422642233088
H          -1.03678328506338    1.05406376686267    2.09914670102464
H          -1.02439315336195   -0.77816368351513    1.46610691801645
N           0.83900807081690   -1.90931906073927   -0.73950189196246
H           0.90327372885269   -1.53642231880996   -1.73292652842932
H           0.99079074857918   -2.91198848689950   -0.70429385210111
H           1.46947597097026   -1.40352062615710   -0.08150606958918
H          -0.16200771082964   -1.64867344497410   -0.44695598715427
