    26
        -50.45509208  Gyration_radius:  2.70203883946 Dipole_moment: 5.379
 S           1.92291608417422    2.00366407617036    0.64407856878424
O           2.39786791851150    1.46723215900548   -0.63594936823027
O           1.36661152827502    0.96491093050742    1.48137885941792
O           1.02943538618224    3.13313595120324    0.45477687447047
O           3.20716425916538    2.56488652202246    1.39390364761269
H           3.45089194320569    3.33273778854951    0.88364738663177
H          -0.43429681604176    2.42049778496714    0.31757907938172
O          -0.60859661744235   -0.82788151481980    1.80507635517244
H           0.11943685921218   -0.17671457553361    1.81766772783105
O          -1.52796556680941   -2.19746266905603   -1.87866536144468
H          -2.17951203902390   -2.82472457684742   -2.19336607215830
O          -1.16275489273458    1.75085641978735    0.30646754790014
H          -1.21624117092033    1.44868576516866    1.21942419027011
O          -2.61562109582444   -0.67571034806090   -0.01493127854323
H          -2.65840270742679    0.27513309004877   -0.15562515713281
H          -2.00573878275388   -1.61555280942596   -1.23332609757477
H          -2.00012122596724   -0.79516060437104    0.74004658078085
O           0.45913985344760   -2.64197116328407   -0.14400094309242
H           1.16378515762910   -3.20463452997391   -0.46620143266212
H          -0.28751848223400   -2.71022199046728   -0.77906631753300
H          -0.19075352907891   -1.66620039234591    1.58259697408054
N           0.34697450073298   -0.01909670159266   -1.04975752550200
H           1.26500731909018    0.53904190528832   -1.00780548544944
H           0.03779002090548   -0.20873288525160   -1.99984190870804
H           0.47558752801065   -0.91870955807816   -0.54805291030418
H          -0.35508543223911    0.58199191643236   -0.54005393393501
