    26
        -50.45509213  Gyration_radius:  2.70197497562 Dipole_moment: 5.387
 S           0.47537482001767    2.52865905408157   -1.22776005633410
O          -0.57876923860574    1.57201736290604   -1.47917907406122
O           1.79553167050472    1.88906485335102   -1.23108485666760
O           0.26407102873810    3.31809758157568   -0.02692694563111
O           0.47439920849912    3.55000262719606   -2.44562900334084
H           1.08175174479994    4.23178336748274   -2.17057983149028
H          -0.36394896552023    2.23132366339509    1.01827487434849
O           0.78475952651551   -2.85692848266029    1.38320003660195
H           0.71157840254355   -3.68454872297212    1.85925812152675
O          -1.91383684394950   -0.57444132365535   -0.56739478815787
H          -1.53744781992923    0.23449905672427   -0.96507922581214
O          -0.74248781306406    1.40495863049589    1.40965509026554
H          -1.58095293638524    1.29125698305989    0.94954428663997
O          -1.29181794559076   -1.33235665059795    1.96313155219930
H          -1.65814184468237   -1.12871778267410    1.07580392413656
H           0.01923891065765   -2.30429548318517    1.68638272258604
H          -1.14058575844077   -0.47594139960045    2.37466104193080
O           0.21149748089138   -2.39821150961999   -1.18902162992415
H           0.80521523026151   -2.80785844070718   -1.81887227452784
H          -1.56063436708235   -1.29948842369325   -1.09310759901582
H           0.40016257724088   -2.78913891861963   -0.30753133487353
N           1.08291159825847   -0.13919007031202    0.17087256505299
H           1.52145746585183    0.63833814394366   -0.42827137497929
H           0.66094997936617   -0.85114897007482   -0.45575437948862
H           1.75163582991259   -0.59304588011353    0.78813820065661
H           0.32808804920755    0.34531073424578    0.72726994842133
