    26
        -50.46305581  Gyration_radius:  2.55462161794 Dipole_moment: 5.321
 S          -0.00376121812897   -0.42864687665819    1.09145877302785
O          -0.59572550946170   -0.79534129056587    2.47757603631351
O           0.26269871077635   -1.70318354570132    0.41758365374717
O          -1.00921645098101    0.34028754999244    0.36609720923278
O           1.21881133491220    0.33303242255146    1.29880171935781
O           1.18300627571353    0.43928421740305   -2.91381911002155
H           1.59034249373274    1.28979515056168   -3.08400503514447
O           0.82454761722358    2.56410963397082    2.67132469591019
H           1.42064654886991    2.52374372127158    3.42100725175368
H           1.05429252235378    1.79843832173933    2.10166502592871
O          -1.37771960693215    0.30753277222222   -2.23264040043380
H          -1.36925056463820   -1.12324355884405   -2.00698153522353
H          -1.32152654812996    0.53644275422467   -1.27767819052123
H          -0.47000035258404    0.46309519105743   -2.58741504336945
O           2.48446176926998   -0.58639986288449   -0.83065585610653
H           1.69727364274964    0.04045758128426   -2.17100644575354
H           2.16205497189834   -0.10891068246419   -0.03984943337520
H           2.21567688820321   -1.49451515263194   -0.66539248218424
O          -1.65231144821207    1.53097128901609    2.70550892292784
H          -0.85918487205672    2.09489225580010    2.82694325831479
H          -1.75348631178061    1.44535799336781    1.74575095623829
H          -1.05872461390192    0.04711893838838    2.75634077664302
N          -1.21662407638790   -2.16359140224535   -1.63222040920539
H          -0.61246419906605   -2.02489085536923   -0.74215849890779
H          -0.71482138217628   -2.72715994041600   -2.31079228670150
H          -2.09899561127969   -2.59867660504625   -1.38544352244868
