    26
        -50.45788867  Gyration_radius:  2.41150049368 Dipole_moment: 7.657
 S           1.49832920579524    1.61533156839337    0.54362182820232
O           1.47459151107881    0.18923317906725    0.98854665613167
O           1.89163165932778    2.49818542881910    1.58889889706134
O          -0.00591277701173    1.92189456161596    0.14604351856127
O           2.19615802297202    1.71176001674656   -0.72553893931183
H           1.11108637722164    1.25824723529689   -1.74684643958404
H          -0.59678668625669    1.72191642009944    0.90519378946278
O          -1.06974929235761   -2.34464844932570   -0.23144166516812
H          -1.73355230681429   -3.00122962405593   -0.44392822959720
O           0.48227370515943    0.79534516187432   -2.37716728683528
H           0.47500796608359    1.32168909112810   -3.17747303643892
O          -1.78390407468895    1.07338845003032    1.88599669751105
H          -1.84798505118972    1.57075506999856    2.70254070623836
O          -1.87006074400415    0.03450597341348   -0.95021133301927
H          -1.12783587690690    0.47729944061723   -1.39682754534704
H          -1.44982283052050   -1.46090358354183   -0.50298690553460
H          -2.04888001213555    0.55232375149469   -0.15648213425892
O          -0.44757112868185   -1.14348996852228    2.26244225457864
H           0.37286882802985   -0.69778408975763    1.96880168273474
H          -1.37293209117965    0.19666891764235    2.12353296226511
H          -0.68578443290027   -1.74255050672269    1.53996754717964
N           1.32182585145661   -1.34323178722912   -1.01392541798638
H           2.16805165667665   -1.85836274391035   -1.22575210922644
H           1.46792334597119   -0.68231832441507   -0.12970079852291
H           1.05820265705820   -0.69908865351261   -1.78388074540701
H           0.52282652781922   -1.96493656524680   -0.79342392369038
