    26
        -50.45966295  Gyration_radius:  2.59382873287 Dipole_moment: 3.965
 S           0.43722772512076    0.29144705529569    2.37418145724215
O          -0.14880607337283    1.51236665358751    1.82315986324540
O           1.51784736496196   -0.18653695141124    1.54313950775196
O          -0.56829476154791   -0.70642743203197    2.68636837921494
O           1.08426728415518    0.70208776725281    3.76822513143253
H           0.31668724657656    0.81962702887241    4.31914120056694
H          -1.28196533741100   -1.26642352202795    1.36507163516019
O           1.35545584501838   -0.65962478707896   -1.77579373675613
H           2.21985350827333   -0.81142411027501   -2.15917193416694
O          -1.64838039508419   -1.68375222419909    0.54339775044262
H          -2.43813022089598   -2.15263289873598    0.81727299442375
O          -1.39895109359663    2.10273362705054   -2.16782489290810
H          -1.40978230507778    2.29581448527406   -3.10618034982720
O           1.00977084814725   -2.35870954998139    0.13591169434561
H           0.04565437164705   -2.40286904427234    0.23738522704584
H           1.24675482850376   -1.37097812360594   -1.06965259882889
H           1.29972831694814   -1.69816660040532    0.80011057278129
O          -1.46214491751509   -0.52116649292166   -1.95251472363276
H          -0.52410314124283   -0.69726379939745   -2.10818529574505
H          -1.64544994016270   -0.88725526201736   -1.07000107994272
H          -1.60241812642218    1.13622649016683   -2.08330142114206
N           0.73357851127829    1.71744242463074   -0.59320192511161
H           1.49394943118216    2.38824015749691   -0.61203589163376
H           1.06212374600802    0.78273341360817   -0.92945021247878
H           0.37113055416784    1.63006496532498    0.41612593732297
H          -0.06560327973437    2.02444674972572   -1.20217729880756
