    26
        -50.45288192  Gyration_radius:  2.71696860873 Dipole_moment: 5.360
 S          -2.24547770487613   -0.68631504845264   -1.64989860844975
O          -2.44063132289912    0.64987607911758   -1.07662888717695
O          -2.84463923666842   -1.74007454348454   -0.88777981743014
O          -0.81445666591119   -0.91210419070991   -1.90396458674137
O          -2.94617483590083   -0.64869995558352   -3.07365893854206
H          -2.59767970561119    0.13731559781825   -3.48549213979828
H          -0.47424208177154   -1.92233788735237   -0.57794259273336
O          -0.49861825236256   -2.23534849850942    0.35444795881064
H          -1.36864140192180   -2.64676262132419    0.41137421276822
O           1.29221362860416    0.49515566123985   -1.05154750508741
H           0.62843659302712    0.01878431582228   -1.59027387546598
O           1.42275022191753    0.86944259276329    2.55672615657148
H           2.03939466319507    0.95164186236120    3.28508875875323
O           1.90116407471145    2.63524300219370    0.53682290574642
H           1.86589400144832    1.99847079173664   -0.19722404036180
H           1.51249164493967    3.44901799908517    0.21383970838560
H           1.66475763859476    1.56742246784312    1.91710784617922
O           2.11963811089589   -1.24295039279611    0.80700662534628
H           1.91637391465657   -0.64503195271883    1.54508017404013
H           1.40280376439085   -1.88804489502836    0.77188667580552
H           1.80451577526054   -0.20273710644607   -0.58469156817872
N          -0.67887746166148    0.42075566698418    0.77436188649837
H          -0.66646946116221   -0.61864682448696    0.89404668006557
H          -1.51900142092754    0.64764490637386    0.15227458961246
H          -0.64195600608717    0.89988211903610    1.67040599362985
H           0.16643151614738    0.64840084442193    0.18863237773879
