    26
        -50.46305531  Gyration_radius:  2.55504853607 Dipole_moment: 5.323
 S           0.60404440678326   -0.02718529167819    1.00201189300461
O           1.17202357209211   -0.64386653425122    2.30730506641748
O           1.70264603393270    0.56951656362062    0.25730513862827
O          -0.04793691197028   -1.09469754588344    0.25126031609552
O          -0.37151095450381    0.98212218452984    1.42536008574157
O          -1.39167784349767    1.41739053004287   -2.48173896164216
H          -0.92717144974973    1.37523702675836   -3.31885797961284
O           3.58809278981125   -1.17917698355970   -0.37791090827713
H           4.40781307025686   -0.82409833855816   -0.02995603649081
H           2.91320875940513   -0.47831752290813   -0.24793788364973
O           1.93936475810723   -2.74362499684099    1.04937419449757
H           1.14107209093760   -2.57480254702350    0.52705991535468
H           2.67604042280116   -2.38835538636385    0.50805531624751
H           1.55661458435761   -1.51473141700967    1.99817935331110
O           0.29600769682979    2.55791682187354   -0.76814345414175
H          -0.14033385698740    2.75062927132063    0.06651525356881
H           0.95340352893606    1.87488188453539   -0.52592397004921
H          -0.78076196894211    1.88182154847548   -1.86009596879035
O          -2.16488806047222   -0.81611764659125   -1.27618288477487
H          -2.67080612908807   -0.14783108124662   -0.09437983695764
H          -1.92307855710363   -0.05339159605898   -1.85395324222916
H          -1.32167316948243   -1.09314506098428   -0.85241534995666
N          -2.81247984038837    0.41406400936696    0.85952623669089
H          -3.34779982439699    1.26292430445201    0.70872607526570
H          -1.79967455604289    0.65950596230768    1.16039801523386
H          -3.25053861176874   -0.16666814833034    1.56641960638747
