    26
        -50.46306737  Gyration_radius:  2.54521740378 Dipole_moment: 3.901
 S           1.72751649808163    1.15605217935637   -0.86375280942917
O           0.65097935513036    1.49244264467838    0.04710455413906
O           1.22369907413260    0.56499573199748   -2.10309964788559
O           2.75349765999515    0.33120202544259   -0.25819538889664
O           2.41825184648314    2.52166191228411   -1.26137200875709
H           3.22579881225203    2.21451419318965   -1.65963459255238
H           2.31206095553941   -1.13907937501493    0.41808976427076
O          -1.93385658491133   -1.23851393364866   -0.21174468553468
H          -2.68798944410771   -1.67833841698485    0.18233350652464
O           1.77616159313936   -1.92693939433870    0.66918117164033
H           1.14944391330785   -1.59888839556868    1.33113821781494
O          -2.27548018215934    1.27663123691789    2.40868366723398
H          -2.05712011447382    2.09707785187702    2.85227893331850
O          -2.04369293210925    1.64416901236676   -0.24377258334651
H          -1.07689834371292    1.76521241554862   -0.24261912666070
H          -2.18685453318707    0.74360404117991   -0.56143777609313
H          -2.33413080625692    1.49766688516372    1.44886711449702
O          -0.30104896642616   -0.37427426104268    1.65753869585229
H          -0.96660266148583    0.11663838990424    2.18549602821224
H          -1.35256361376343   -0.94703059951991    0.54681588870750
H           0.14605906640043    0.32799564109656    1.13485942460167
N           0.35640142157375   -1.79554080584014   -1.51734531180866
H           0.95299882150945   -2.01345264056763   -0.65000808080013
H           0.46288126554209   -2.49618860530787   -2.24218208944158
H          -0.63162947614321   -1.70650442901056   -1.21009625379611
H           0.69211739568470   -0.83511331411840   -1.85712662183615
