    26
        -50.45499999  Gyration_radius:  2.52967442465 Dipole_moment: 4.812
 S          -0.57888639677834    0.52610320921298    2.36485314493061
O          -0.06460306063466    1.53119892347668    1.43319022019389
O           0.45206113717844   -0.32489815058473    2.88819718400354
O          -1.67506773880195   -0.22361941798619    1.74646486124567
O          -1.21263326803281    1.33082426150010    3.57645592122658
H          -1.81732961458446    1.95119488586397    3.17582723003143
H          -0.84246331020554   -1.50289289292591    1.17588141582967
O          -0.13622303752095   -2.12848989749917    0.87135238687033
H           0.17204208134318   -2.54049848410133    1.68267269263089
O           1.51176072424728   -0.38397646353792   -2.43483943378954
H           2.00974570530504   -0.89433414590317   -3.07338940797534
O          -1.78843984317022    0.65139738411841   -0.81854174799791
H          -1.86127134516540    0.41099417038806    0.12162937242212
O           0.41677944165938    2.09791354707799   -1.79065943338646
H          -0.03859112192117    2.58824247778106   -2.47642980427245
H          -1.07365882629367    1.30722986501980   -0.87424254459512
H           0.82712356924780    1.33245847826497   -2.21881533432505
O          -0.72499313321459   -1.53189605837738   -1.85933456691665
H          -0.62285184813493   -2.05756665670267   -1.05746281081890
H          -1.25404474910705   -0.74237896900146   -1.57576449699255
H           0.63538953920320   -0.86547463828936   -2.30311091974822
N           1.55980480263684   -0.10584390404724    0.27303390165447
H           1.71279663017993   -0.07005320510796   -0.75485776292466
H           2.43216780810469   -0.10665873968173    0.79206364910757
H           0.96387850051754    0.71550202219278    0.62244369391559
H           0.99750731398748   -0.96447761117299    0.51338259968065
