    26
        -50.45288161  Gyration_radius:  2.71791939655 Dipole_moment: 5.382
 S           0.95923418002605   -0.71414927467678   -2.61149101603317
O           2.37012867163792   -0.80147622975037   -2.38383875301658
O           0.44148838356094    0.65828122827578   -2.63106935574128
O           0.17925992742624   -1.52365058592244   -1.66288147981176
O           0.65526954417376   -1.30811837626315   -4.05160007616902
H          -0.27010634465664   -1.12507272233592   -4.18963098265187
H           1.29511314713835   -1.55814955893557   -0.37970938488549
O          -0.18502892189158    1.68150437005574    2.54022842006342
H          -0.24397617148650    1.97070338576732    3.45158233563944
O          -1.56309518447864   -0.73239917710354    0.20429972658312
H          -1.11937134161309   -1.16930575961899   -0.55049732314907
O           1.96022268990746   -1.20802035628532    0.25516558615679
H           2.75871517426831   -1.16735546005479   -0.28352527489050
O           0.02084866687707   -1.13268547712192    2.32315397339235
H          -1.16001422440866   -1.12452257327219    1.01141047271688
H           0.84591131967909   -1.36675135757224    1.88078692725269
H           0.08058558827070   -0.18659414328451    2.53530377976497
O          -2.60548386334155    1.54720199348317    1.29541318006106
H          -1.09643468990743    1.70679214592700    2.18875996438360
H          -3.09853971996028    2.06572275316564    0.65856825279985
H          -2.50013655896163    0.65993534354243    0.91177407698010
N           0.46496106514153    1.00785421283735   -0.08986436774579
H           1.21658795643964    0.33373792647577    0.18443212369986
H          -0.44408726300585    0.52187225021345    0.12598613109151
H           0.54233454323469    1.88182016020613    0.42395507584778
H           0.49561343593940    1.08282527219562   -1.15671201226870
