    26
        -50.45059456  Gyration_radius:  2.46317121785 Dipole_moment: 4.139
 S           1.61678813443321    0.81447126954690    0.85232058412567
O           2.93748436645260    1.22760084435920    1.14597667951572
O           1.30249566366327    0.65030419198694   -0.55411475960521
O           1.32780569107200   -0.53591251019845    1.56445452606533
O           0.57588089426251    1.76408085108020    1.46850147247056
O          -2.16424153612578   -0.28375971609433   -0.56921168068174
H          -2.97008355215330   -0.58910731304375   -0.98672264272894
O           0.49761781817478    2.69398902761712   -2.08449393159147
H           1.15575982012090    3.38985636455068   -2.05092559907559
H           0.91368289596469    1.89921082746013   -1.69950330955190
O          -1.21367383811735   -0.45682688239930    1.91968409997985
H          -1.35316540689712    0.42031750135414    2.28749890351571
H          -1.65273942531181   -0.46453226535847    1.04000748535318
H           0.33454075362054   -0.57044243757304    1.72269513480321
O          -1.27791196065755    2.24365053504913   -0.14435865461297
H          -1.67580761176615    1.38262506866151   -0.38542306971824
H          -0.19821254620585    1.98411332293916    0.80033243171227
H          -0.78736498243969    2.54488430014929   -0.94072473087788
O          -0.11485705975684   -1.38945412823645   -1.63632483377872
H           0.51431314712007   -0.67649067176100   -1.43311341462475
H           0.15467464153537   -2.13797676495395   -1.05455953945898
H          -1.39787720932744   -0.73571369703647   -1.05463892268411
N           0.75364466186542   -3.17786436689210    0.22927828780354
H           1.25493610799615   -2.49444699584057    0.78806017266846
H           1.40987028168005   -3.89611948935984   -0.04970053229373
H           0.05644022079780   -3.60645684600847    0.82500585327007
