    26
        -50.45288168  Gyration_radius:  2.71818353581 Dipole_moment: 5.390
 S           2.53668976454660    0.94407189656776    0.96267384986506
O           2.45361882594108   -0.51117147615654    1.12851514743470
O           2.14438761900081    1.68599867857276    2.12273243295821
O           1.80086886296306    1.34717604928166   -0.24540400762439
O           4.06553709426827    1.25631744352505    0.67248177056458
H           4.29707846401499    0.65741808920546   -0.03215608467138
H           0.40041180147985    1.95858852645164    0.50159425524186
O          -0.35178297599146    1.98843519435249    1.13505785420410
H           0.07220617683074    2.29467755262391    1.94494271475989
O           0.08694964026790   -0.06422277796090   -1.73499415547092
H           0.82718703186052    0.48941049643956   -1.41411162359694
O          -2.68314392933307   -1.44501477313364    0.16359422598490
H          -3.60838347855757   -1.68138750786738    0.08800091161912
O          -2.15042295045531    1.13011608459782   -0.88232984335977
H          -1.79058065887972    1.69634698576986   -0.18867456785649
H          -0.71057433782800    0.51016521786437   -1.69345089364416
H          -2.48275685722539    0.33107888916625   -0.44101374135552
O          -1.13551370809048   -2.50870767197372   -1.81155025528607
H          -2.22521686649084   -1.90689301754733   -0.56556730242876
H          -0.66203632435557   -1.69417841256946   -2.05200548342298
H          -0.51124420397245   -3.22879540451724   -1.90818579017377
N          -0.09344650169676   -0.68206738807326    0.87542078203045
H          -0.13115273970257   -0.66121100559065   -0.17681955879718
H           0.94369889440171   -0.78769099150355    1.11632919759141
H          -0.37673124972639    0.27588719749857    1.18628103856383
H          -0.71564738327377   -1.39434786502251    1.24863911689758
