    26
        -50.46433754  Gyration_radius:  2.5190901542 Dipole_moment: 3.791
 S           1.84365887955111    1.20172054767193    0.11216411995314
O           2.42583952908743   -0.04923374969232    0.59308700600598
O           0.45032778341711    1.32150727200325    0.50309406970325
O           2.05703318609848    1.39029638477689   -1.30645289961921
O           2.60755667932592    2.37260066336854    0.85216538688186
H           3.45179439010951    2.35644766486508    0.41373422223371
H           1.15833602984317    0.39889631452643   -2.34244054683422
O          -1.27849725739569   -1.97672416583951    0.59748993115886
H          -1.83136370420371   -2.66329043765539    0.97098090934860
O           0.54428558771865   -0.30663706277807   -2.64637073546111
H          -0.34177054676794    0.00309864727725   -2.38009467467860
O          -2.97231833991301    1.46864533904834    1.09863152699695
H          -2.68457469508923    2.38091720197242    1.16324347824176
O          -1.52387816591140    0.35832717976005   -0.99051157173202
H          -2.68136177079983    1.15751324556630    0.22155613956120
H          -0.80030910047310    0.79598309610013   -0.49066370115009
H          -1.61808707330268   -0.51987367015787   -0.59186855985110
O          -1.02232693164028   -0.03996134055331    2.27553521772361
H          -0.32679036784269    0.47426223808865    1.82279657742906
H          -1.84143580164389    0.46500382425873    2.09757048197387
H          -1.16821757804849   -1.27885254050417    1.32124559429359
N           1.11365531625489   -1.89419818171943   -0.65784416465139
H           0.88460084650611   -1.37018972039289   -1.57119134537988
H           1.62286162652527   -2.75262239433953   -0.83680592867251
H           1.70558208542450   -1.21322266903321   -0.08319338514115
H           0.22539939289489   -2.08041367680894   -0.14585714823467
