    26
        -50.45730951  Gyration_radius:  2.44925079045 Dipole_moment: 7.987
 S          -1.24120551770822   -1.65546063700635    1.25738298457325
O          -1.55242288818934   -2.63871039324775    2.23291216977788
O           0.13627434684700   -1.81368792530420    0.69645687536010
O          -1.44639987524023   -0.26752340142750    1.64873966281960
O          -2.17604158159792   -1.85916454739842   -0.01130322301793
H          -2.20158408787485   -0.96545358514716   -0.39334879567135
H          -0.40765291975666    0.84559404733535    1.97382084170829
O           2.17248851262189    0.70979284869401   -1.27312816468779
H           3.07082856358043    0.86301801201403   -1.56643955786128
O           0.25311810400768    1.58474663672562    2.10218560425827
H          -0.01718318478806    2.03993884442751    2.90026144111762
O          -1.92849817217337    0.48718095015883   -1.35121602037259
H          -2.76903808860657    0.93514515761977   -1.45106690404967
O          -0.11517705344398    2.17432894467765   -0.52825247332839
H          -0.02095727996324    2.10381868776614    0.44123212847456
H           0.72365889921977    1.85284011796540   -0.89010339275387
H          -1.29654461891089    1.16653631975785   -0.97380943565122
O           2.15274559254677   -0.12310638432588    1.16136633984692
H           2.23769888943929    0.40440344203613   -0.30902912259486
H           1.67789999498735    0.56916868168078    1.65302886181359
H           1.51334398332627   -0.86381346485671    1.11088990709586
N           0.24939251919103   -1.11603058955292   -1.72607642833317
H          -0.62998356195995   -0.61347312241703   -1.90556788558452
H           0.37260599041324   -1.88898867722486   -2.36976522490794
H           1.04842978679602   -0.44588468469616   -1.75747341752916
H           0.19420365723798   -1.48521527825358   -0.67169679049887
