    26
        -50.46305560  Gyration_radius:  2.55470333266 Dipole_moment: 5.321
 S          -0.27630807748226   -0.48955489948847    1.02799644383650
O           0.48714148343270   -1.01218777167072   -0.10000147296671
O          -1.66451026443866   -0.23400462575846    0.67405281822360
O          -0.24428063591783   -1.55354496660341    2.15633764014971
O           0.36725407305945    0.70516327989546    1.58314844228289
O           0.12785230386588    2.36424708747313   -2.11675929758004
H          -0.49471041021251    2.32417604257591   -2.84413170844401
O          -2.93000926682047   -2.40283332375537   -0.16943552523357
H          -3.70496325327416   -2.49203767838442    0.38781429582263
H          -2.52744435411189   -1.53842496469805    0.06357205955411
O          -0.53911966874882   -3.45037116815796    0.45475177001563
H          -0.00867487966083   -2.86546770643942   -0.10670180416629
H          -0.37246618594305   -2.41352484600410    1.66061365434900
H          -1.46484078517500   -3.30964843869233    0.16315562845837
O           1.90526723455362    0.42343624536853   -1.77917904906010
H           2.43715760353573    0.96257809846617   -0.54394997217978
H           1.34956588043455   -0.25498614035915   -1.33380783708087
H           1.27497248010470    1.13105776500026   -2.05466876818933
O          -1.34188134377431    2.32549266549338    0.10197753885392
H          -1.63843718335939    1.40081608187700    0.22210618442114
H          -0.79886062218545    2.48612467447565    0.87889322683809
H          -0.42121671181218    2.39628322754381   -1.29649386104529
N           2.61745576497152    1.31086467824361    0.50097094057476
H           3.39734556161593    0.81850069821806    0.92303208844608
H           1.69755312043563    1.05358250650680    1.01485303670376
H           2.76615813687101    2.31426346903077    0.53185351737971
