    26
        -50.45514046  Gyration_radius:  2.75134104041 Dipole_moment: 5.665
 S          -0.36531223406252   -2.63417327059026    1.16032514423837
O          -0.39222743331581   -2.83230275541205   -0.29443806413347
O          -1.22532121823601   -1.56067812268012    1.58899881753581
O           1.00534906841209   -2.51315976351244    1.63791282692806
O          -0.94015401624595   -3.97380557369115    1.78749412720089
H          -0.31749990634813   -4.62708504856455    1.48260403884961
H           1.72847064430336   -1.20112142760476    1.14935269903101
O          -1.52786494678340    0.82646740217415    0.54003973911392
H          -1.59891934257080   -0.01112592153753    1.04710698109211
O           2.17218770023283   -0.41357523977168    0.72353889902119
H           3.11191487132317   -0.59780033656963    0.75734054091758
O           0.76530783472173    2.27953806733780   -1.74394616697505
H           1.11937423906330    3.07572712302014   -2.14094052290824
O           0.81018010242383    1.99983015877332    1.04052916803568
H          -0.79771039712606    1.33684847544172    0.96213942690725
H           1.36643378053696    1.22408992836566    1.20306430030448
H           0.93696852836855    2.21052845271529    0.09963746021941
O          -1.93851344931889    2.37618220514816   -1.63837754673716
H          -0.21135746823461    2.35466257599075   -1.79508263059331
H          -2.02160632567026    1.79699875237177   -0.85798591328160
H          -2.41727833121515    3.17844993633701   -1.42505652831862
N           0.15250187589050   -0.45268402815833   -1.09168161328791
H           1.06136785010423   -0.28983584315850   -0.61812440890443
H          -0.10086108628061   -1.48137006426279   -0.91826694837084
H          -0.57753919373023    0.12226373551373   -0.58464158557401
H           0.20210885357223   -0.19286941754125   -2.07154222023236
