    26
        -50.44448061  Gyration_radius:  2.5068314639 Dipole_moment: 7.756
 S           0.77550842367916   -0.64398198442804   -2.37834842968035
O           1.90864782459774   -0.63730809291428   -3.24298348737219
O          -0.52508873952894   -0.37193388438784   -2.93187076063979
O           0.98511812417652    0.54583701278891   -1.30942525149488
O           0.75915103971006   -1.86476626652007   -1.51857422457526
H           2.28349565578027   -1.54542778438226   -0.83867888686592
H           1.88531355350503    0.40774981817077   -0.98527129769936
O          -0.76071236397015   -1.45779088417447    0.36016850794971
H          -0.15855369947072   -1.76695395445477   -0.47694262577437
O           2.98539980437512   -0.99450086305353   -0.43052439258233
H           3.74039943728278   -1.06485179272584   -1.01816912727384
O          -0.17583739921854    1.93810467448481    1.19397355977308
H          -0.01562786081146    2.81959732877395    1.53092178946108
O           1.12627792921972   -0.36630435909645    1.66695907267647
H          -0.04521868642710   -1.07493750647190    1.00279809276058
H           1.91290987205190   -0.55045468992688    1.13546346788835
H           0.85863923165450    0.55921704295836    1.48726811293782
O          -1.72824256745240    0.54562256309748   -0.82562609651972
H          -1.41397331986797    0.25616830852377   -1.72197074617034
H          -1.27017811377809   -0.63817871016547   -0.04597647241639
H          -1.09433325716851    1.22505761974425   -0.55028089322250
N          -2.51475155383184    0.89853602315789    2.05463684584057
H          -1.02811011926255    1.62035613237411    1.59119480004040
H          -2.93301142057183    0.74250991279693    1.14354952043940
H          -2.38431136366865   -0.00552234472977    2.49190867106680
H          -3.17291042108465    1.42415667047344    2.61580026167686
