    26
        -50.44778499  Gyration_radius:  2.50281331238 Dipole_moment: 3.951
 S           0.09204035734201    1.91582387243354    0.53398100491739
O          -0.08815885375406    0.88364389524549    1.57118104860847
O          -0.21325151444841    1.38712443257410   -0.77586334264532
O           1.36460967080276    2.57921978102557    0.65046846479537
O          -1.00784902563343    3.02004421857349    0.83991178259749
H          -0.52285690190112    3.66153361306207    1.34903509589357
H           2.41549298366415    1.43086421434871    1.48368720065916
O           2.67971871868060    0.57444982401771    1.86550388597650
H           1.91071443971155    0.30328524993602    2.37492440554832
O           0.34422972858742   -2.20552649620410   -0.76655417601208
H           0.78408500199871   -3.02313570525081   -0.52960363466112
O          -3.24415035533180   -0.82937700963182   -0.32759832229199
H          -3.82224704339052   -1.56207767292171   -0.54636346325496
O          -1.47218762763630   -0.49602747340910   -2.20260351655571
H          -0.83864920936683   -1.20577726777272   -2.03716631594780
H          -2.70695829773109   -0.62713781733980   -1.14539322437639
H          -1.05392579360799    0.30619610186939   -1.83661546699658
O          -1.15779836362505   -1.27128466644582    1.05548181014504
H          -2.05746164785475   -1.07768807155708    0.59753082861020
H          -0.54550386203481   -1.68359646143835    0.32832770786497
H          -0.72320549239656   -0.32298000644423    1.29675638082377
N           2.05802013007378   -0.31514644613037   -0.76700283406505
H           2.79933830938416   -0.27105254460960   -1.45440543478590
H           1.44027404448457    0.48099204312178   -0.91378037873450
H           1.08893825426068   -1.46662256857812   -0.80189483881971
H           2.47674234972896   -0.18574704847445    0.15805534269728
