    26
        -50.46422810  Gyration_radius:  2.57410225983 Dipole_moment: 3.112
 S           0.50817164886272    2.22645009821428   -0.35612819104363
O          -0.33010690382170    2.81278693541087    0.66497082604487
O          -0.11128109902322    1.06434834598431   -0.99974092500620
O           1.84966717242856    1.89921742080402    0.08507817971476
O           0.63231712881062    3.33868171943986   -1.48173653660482
H           0.09241764473622    4.02548092942021   -1.10428482349629
H           2.20490066367701    0.62545819921954    0.97324699505791
O           2.30038801864988   -0.18119931727671    1.54551021158514
H           3.10347457713022   -0.04795896148693    2.05069093100850
O          -0.31130958358262   -2.49985564046773   -2.41151430713969
H          -0.07148332330695   -2.26834350791886   -3.30945849570624
O          -1.74673975513005   -1.28954979251836    1.26169245548905
H          -2.20220378971638   -1.74412723910614    1.97082285101548
O          -2.11764046064264   -0.73028498703167   -1.52563985929030
H          -1.55550127359993    0.06063987515270   -1.49121753152615
H          -1.09754838396533   -1.94368687958219   -2.18913987940133
H          -2.29520090962308   -0.94723881072430   -0.60042286424553
O          -0.33561650838465    0.68092137108553    2.23837627086926
H          -0.39646719940428    1.52219988891019    1.74100029212013
H          -1.34282248370996   -0.47449598266942    1.66528155603268
H           0.59195618418022    0.40627900049158    2.20101212972674
N           0.55429142313311   -1.33532387796976   -0.18058406514894
H           0.53776526853190   -1.95970898818147   -1.01275695639139
H           1.42159641814811   -1.32413155867683    0.36589977655173
H           0.37225735939597   -0.34649328391533   -0.52641049376071
H          -0.25528186376328   -1.57006497669693    0.42545245354227
