    26
        -50.46365331  Gyration_radius:  2.41778954385 Dipole_moment: 9.111
 S          -1.95603333888143   -0.06874803495956   -0.32293628831251
O          -1.19297059576128    0.58383753963790    0.74035929554362
O          -3.20423373255774   -0.61747800639159    0.08096101673290
O          -1.08788103008879   -1.06646395286693   -1.00715071844063
O          -2.20161817075589    1.04683431020514   -1.40682289720068
H          -1.32481117023449    1.43515576076861   -1.58117098669298
H          -1.35915786300112   -2.31703046301845    0.17873271100666
O           2.30640337186556   -0.25643102670061    1.05908209390340
H           3.07076995287312   -0.67185053635107    1.45941490013029
O          -1.51865111714321   -2.74609163743029    1.03560320673000
H          -2.41544991229955   -2.48076676854646    1.25981441010594
O           0.29529700948814    2.12985956645347   -1.79934982998886
H           0.18179722848797    2.99599900046491   -2.19354613873022
O           0.87277025615340    2.20724042672751    0.72032128371012
H           1.56480692166052    1.58249820699679    0.97573689658096
H           0.54215786019415    2.28363712220157   -0.83775872665689
H           0.03396379776511    1.73172460384025    0.90346080714789
O           0.18585834717767   -1.05183117206285    2.28066355143839
H          -0.40089931542823   -0.36619079463966    1.89944049924624
H          -0.25107320908883   -1.88186587481784    2.00853068953882
H           1.50500485900051   -0.59816707950145    1.57478859450886
N           1.30673383594251   -0.37730585600627   -1.42066362910230
H           0.26754178623626   -0.72012323105573   -1.23566646897057
H           1.20886171736091    0.57377652824047   -1.79930898503245
H           1.80028016110105   -0.35567008885259   -0.49488743703011
H           1.77053234993242   -0.99454852232749   -2.07764784015845
