    26
        -50.46365347  Gyration_radius:  2.41770507748 Dipole_moment: 9.110
 S           1.18806976159614    1.12291858972373    1.12438891012877
O          -0.21518487733761    1.30486823101862    0.75491864938580
O           1.94783662725800    2.32166641974291    1.21348244671125
O           1.80794508696926    0.12019992271640    0.21462819454846
O           1.16239800603930    0.41439643292574    2.53030547365038
H           0.56808783314010   -0.35065645598843    2.42279540766274
H           2.12319399018964    1.26972166507524   -1.05856079367523
O          -0.57332175144935   -1.68648455473243    2.16449416744196
H          -0.87912793349241   -1.96846053269976    3.02787535619362
O           2.01528188853936    2.03261629196271   -1.65040865940597
H           2.15636116419089    2.78973593977666   -1.07446391801639
O          -1.55343763273944   -0.80491166394483   -1.85647241869204
H          -1.87614375260840   -1.00637336157046   -2.73529718612241
O          -0.65130134304367    1.60470151375450   -1.82759194191211
H          -1.21484140679703    0.14828635730096   -1.89857500605763
H          -0.61075724026916    1.67501171370027   -0.85131531759284
H           0.27165030852083    1.78281146918424   -2.09290859114790
O          -2.30820952883683   -0.27924779038037    0.86184740469495
H          -1.67821616369168    0.47318159447742    0.88051081951933
H          -2.37218864059151   -0.51699351891860   -0.07297583463121
H          -1.33170295219354   -1.17859716357031    1.74462238356695
N           0.39706052075421   -1.88905583629784   -0.37900400107888
H           1.03548513477321   -1.00907494736682   -0.15605652503726
H           0.01831998694651   -2.17923890102252    0.53194593101490
H          -0.37466838891941   -1.56547446770039   -1.01208268718162
H           0.94741130300278   -2.62554694721214   -0.80610223395174
