    26
        -50.45966268  Gyration_radius:  2.59390251512 Dipole_moment: 3.968
 S           1.17573996374503    0.77858343445869    1.98116832204150
O           1.94514483064632    1.11990026962164    0.78561359673407
O           0.74821005585093   -0.60088242039001    1.94710694868946
O           0.11260091686897    1.73121921032568    2.23893777109382
O           2.18107676613080    0.91208939856799    3.20667922192400
H           2.27454600503478    1.85612021473989    3.28759059359427
H          -1.02642339741768    1.67758736296642    1.11246019318545
O          -0.83319235179944   -2.08683722024297   -0.60846424849596
H          -0.87030831737499   -3.03794260583225   -0.50250222268672
O           0.80436181156236    0.34478181609152   -3.21040891252819
H           0.66234016436448   -0.08204119134422   -4.05628280559045
O          -1.77654902736102    1.57202377334111    0.47237856050895
H          -2.31505502151588    2.35913933668431    0.56768199330554
O          -1.51330269154411    0.29916897402008   -1.96152389482621
H          -0.09550187621788    0.48753491627340   -2.81963856844442
H          -1.47604639122088   -0.60865673602515   -1.63043149750376
H          -1.59729666693628    0.85518868438621   -1.16761433441586
O          -1.82276963817673   -0.99819104741108    1.51238116502187
H          -0.92619656102209   -0.88189099671907    1.89190731472833
H          -2.08318757081862   -0.11054465319832    1.21918728451621
H          -1.26925074350866   -1.70785907290946    0.21775748757989
N           1.54902065824731   -0.79195261564345   -0.90192370433315
H           1.41007099013802   -0.36172475940349   -1.85031329460970
H           2.34965599514818   -1.41430991151604   -0.89033118447370
H           1.71449745635195    0.00163920020079   -0.19447463371205
H           0.67781465080361   -1.31214337093348   -0.64694115132288
