    26
        -50.46163544  Gyration_radius:  2.55648165585 Dipole_moment: 2.272
 S          -0.25640055092093    0.98396178783300    2.09498105639391
O           0.52876369417906    1.75120815519476    1.12889900032040
O           0.16754433874727   -0.39640554101662    2.11518375077447
O          -1.68273147902742    1.18404330653703    1.92039351308491
O           0.08228759236222    1.58701840069678    3.52761624705826
H          -0.50260787657185    2.33675823494926    3.57365463342804
H          -2.08745396096819    0.64568922745702    0.46887646560208
O           0.71666678384728   -2.21468521291364   -0.83697216834450
H           1.09970918881789   -3.09108476996269   -0.79155972468853
O           1.56622148492127    1.40822229257180   -2.43724992022454
H           1.23023165268592    2.25958993381391   -2.14892759886875
O          -2.34189398418995    0.22668672805187   -0.39312721714007
H          -3.23659825948576    0.51887482490898   -0.57513027192378
O          -1.32443509919085   -2.08487586565939    0.73527045265258
H          -1.90147489536301   -1.44107036852334    0.29361375706398
H          -0.09271222865815   -2.23496941301361   -0.23647120264544
H          -0.84767883308094   -1.56204831013922    1.41402395543132
O          -0.51098802597802   -0.22191421364128   -2.41929903308538
H           0.76722608984214    0.84582814652412   -2.60365443646615
H          -0.12123226757018   -1.04671374225571   -2.09843577639379
H          -1.17902029012573    0.02124651108301   -1.75553876190854
N           2.00901965662066    0.08863230991077   -0.18837818427650
H           2.03262686957487    0.58776727938604   -1.12272371893833
H           1.53971360674746   -0.83641156965213   -0.31824153500424
H           2.93324594658417   -0.02959432151344    0.21050251548581
H           1.41197084620356    0.71424617938203    0.44269419261771
