    26
        -50.45980655  Gyration_radius:  2.48341044473 Dipole_moment: 9.588
 S           0.27071115535183    2.37773499547286    0.08639313214751
O           1.02797537099108    1.57769720624329   -0.88265475626883
O           0.14631568461366    3.76108474451980   -0.22014682228565
O           1.19888484064843    2.30811835972875    1.42018794680213
O          -0.95016100612374    1.68719549266623    0.47615120217919
H          -0.67201733892619    0.57344196161785    1.55565318356385
H           1.38871280293892    3.23318065760258    1.53336472708716
O          -0.35138317801316   -0.13275898996516    2.18415374233245
H          -0.31755444767822    0.28351412421297    3.04641302238572
O           0.60255448680871   -2.42516258873853   -0.98200118032579
H           0.70685742844442   -3.35303387087740   -1.19244031551520
O          -2.44683829622095   -0.06038253691108   -1.04895885289498
H          -2.12750622398734    0.68108534429938   -0.51255924583073
O          -0.22184867288941   -0.19260474824147   -2.60443784044860
H          -1.82606214813120   -0.10656994547699   -1.80322546106440
H           0.24683425200611    0.53115252822493   -2.16072822047445
H           0.14677466336978   -1.01330668659262   -2.25095833263824
O          -1.53068061138380   -2.04747540053730    0.40566995954884
H          -1.28366366351747   -1.56343696612228    1.20292502588001
H          -2.02216977767764   -1.38478391558898   -0.15125629319348
H          -0.27130409296794   -2.34390319536758   -0.47807589026326
N           1.68508724228716   -0.49315311577558    0.48689610067041
H           1.49157244186853    0.37887246563306   -0.11567461456212
H           2.65028212108231   -0.50905814049690    0.79649382338622
H           1.01906361364670   -0.43039056199572    1.29429606244942
H           1.43956335345789   -1.33705721753751   -0.08548009266521
