    26
        -50.44484483  Gyration_radius:  2.47818600144 Dipole_moment: 4.668
 S          -0.13235768363811   -1.21304991051605    0.76804502629205
O          -0.12376874446799   -2.40681554972180   -0.03020868474445
O          -1.38204157376671   -0.86264606855177    1.37142358969291
O           0.34834292093656   -0.04490713839350   -0.15023355520431
O           0.96580724299251   -1.25740027588515    1.82466636951528
H           1.82133178987298   -1.42070780490494    1.28242818536609
H          -0.40001710276579    0.36443462810890   -0.67433277362481
O          -1.66697888780714    0.80027630674643   -1.54498025637785
H          -1.41025606814274    0.88466059042008   -2.46547501216881
O           2.79815060799418   -1.55755255570288    0.13300068727455
H           2.21702550210327   -1.94657068017112   -0.52687243576893
O           1.18520757582794    2.54394079142650    0.93728487332405
H           1.10975013429467    3.46316142660014    0.67580117059045
O          -1.43827048935515    1.84473620665065    1.16092668534788
H          -1.78427379269453    1.84939209221956    0.26191009577142
H          -1.49724367571613    0.91960901105466    1.45249325002199
H           0.26899221780542    2.23607289614878    1.09800987826445
O           3.08640053384748    1.03683653486207   -0.29879951454439
H           3.81807080564796    1.32972141564071    0.24864260963262
H           2.92896155843725   -0.60386665018836   -0.11909244948549
H           2.29033368716248    1.46849441124429    0.07596214849841
N          -2.66448274418643   -1.59210296957989   -1.13196093243274
H          -3.13116459566569   -1.48807348682405   -0.23785173295556
H          -3.24545307525909   -2.17490753262551   -1.72313600110483
H          -2.15925507268074   -0.07523283863721   -1.45674961510830
H          -1.80281107077683   -2.09750284941597   -0.93090160608499
