    26
        -50.44999791  Gyration_radius:  2.60249051799 Dipole_moment: 5.577
 S           1.75362049010495    1.54047596992326    0.84853299553656
O           1.50128190109306    1.01709995836754   -0.49377961018888
O           1.70231140429188    0.47388487270117    1.84279082277040
O           1.02502410136244    2.72928322138202    1.19080139540926
O           3.29942621850200    1.98101627936533    0.79193564106183
H           3.35827070811668    2.76431541886501    1.33255434970608
H          -0.42409634419805    1.77142941238583    1.31987480167876
O          -1.13999806925231    1.13134214063036    1.20254010135722
H          -1.69228692923157    1.45490822814244    0.47898060933600
O          -0.50914438593697   -2.46328862795243   -0.63257211735452
H          -0.80294968825003   -3.36978283653952   -0.72719126949764
O          -2.83259116635345    0.79836052926050   -1.13753976469784
H          -3.36088350854462    1.24231279731371   -1.80087058653972
O          -0.47294945654755    0.02090430151730   -2.09955159274589
H           0.19614073638873    0.51695156400108   -1.59709653302357
H          -0.43903269570819   -0.88797687294368   -1.77211624781005
H          -1.97783309854955    0.56344131500006   -1.57192383505589
O          -2.31161194806671   -1.21604604186105    0.70675762508752
H          -1.81919239529458   -0.53282295618406    1.19742052655841
H          -2.80480413797142   -0.69255715643850    0.05510256255180
H          -1.22396771459698   -1.99623107842261   -0.08676136108599
N           1.81099512957612   -1.42726248569145    0.18600042040997
H           1.84412963168614   -0.57757143268246   -0.43785979842192
H           1.73527469676463   -0.87930369894516    1.10729160627097
H           0.93844477290666   -1.96455799002390   -0.03440184918013
H           2.64642172768435   -1.99832485118173    0.13108111786947
