    26
        -50.44835983  Gyration_radius:  2.45379933835 Dipole_moment: 4.173
 S          -0.53593987515960   -0.03580704487626    1.11640560830363
O          -1.91679763614647    0.13615855310785    1.44088317507158
O           0.32255221366126    1.06421132409096    1.44501115155716
O          -0.40761500419519   -0.35161887899728   -0.40793148475885
O           0.04657518557418   -1.30342336623700    1.74038561389333
H          -0.32489019833501   -2.15767785626519    1.27522082026214
H          -0.48303534617172    0.50139312510960   -0.93706591013703
O          -0.67935348556616    1.87600444324165   -1.65352391644699
H          -1.35535531671231    1.82266163622479   -2.33224330503734
O           2.41819324877324   -1.16029869931850    0.11313194274909
H           1.87683783973055   -1.08791950369432    0.90589747757953
O          -0.63064014891831   -3.37768347478643    0.51647886699516
H          -0.22159868305957   -4.12877752599901    0.95342495024177
O           0.89892538707925   -2.68044674525160   -1.45928603481818
H           1.59018930246526   -2.20452840834068   -0.93710480046214
H          -0.08465573854420   -3.20087905356981   -0.31073909788312
H           0.38384535685106   -1.98397067685536   -1.87385093051046
O           2.04870018142361    1.46146611888105   -0.58760386236478
H           1.53746510559667    1.49343984693676    0.23930185330894
H           2.48602737788241   -0.25511017228090   -0.24632426422075
H           1.44380981110163    1.75205411974415   -1.27622146830167
N          -1.75891536236214    2.83751446176841    0.51918547229474
H          -2.49823376941215    3.52391458072275    0.61141566322784
H          -2.08287723886389    1.95692736855810    0.91791353204537
H          -1.09241748735241    2.37011228155274   -0.87057138843260
H          -0.98079572992775    3.13228352750002    1.09781034563891
