    26
        -50.46305559  Gyration_radius:  2.55481632986 Dipole_moment: 5.322
 S           0.94747585509527    0.65680409051184    0.20618417378574
O           0.60812623840938    1.26029237988158   -1.08622171499288
O           0.18865120880312    1.25770228202267    1.29286849206822
O           0.78213897064029   -0.79190053532449    0.16091329324267
O           2.45267899275539    0.95560598623180    0.43333517537138
O          -3.04102249964940   -0.49893247520052   -0.77253009702204
H          -3.63698479737007   -0.70931478780332   -0.05223056785311
O           0.88879546948465    0.33186796489010    3.67364901396394
H           0.51766754422354    0.68134152830202    2.83473115198310
H           1.12196616296282    1.09911067314078    4.19901551161695
O          -1.94573744284673    1.84579663233116   -0.14980519991875
H          -1.27556802265567    1.66623256850570    0.54008550037489
H          -1.42391303856255    2.18824929271330   -0.88100948718773
H          -2.67102873877511    0.39214468489278   -0.56170080452524
O           2.64117217830125   -0.97225247876174    2.11490094084570
H           1.98820717861677   -1.38536623821805    1.53039815639165
H           2.71828998777210    0.27496978465429    1.11742323960409
H           2.12053726147290   -0.62437232006971    2.86976227610332
O          -0.97917646970973   -2.08463398522499   -1.29468071047177
H          -1.82529860868525   -1.62447653382933   -1.07938594723552
H          -0.43343107966810   -1.23599023953046   -2.33435985872128
H          -0.34280195453393   -1.78370332849121   -0.60779892712539
N           0.03830730057782   -0.42537344452196   -2.93946431560134
H           0.86227551777818   -0.76193521178222   -3.42583858529350
H           0.32434015568698    0.31050208745566   -2.19563985846804
H          -0.62566736017348   -0.02236835677972   -3.59260086090263
