    26
        -50.46300078  Gyration_radius:  2.56596308935 Dipole_moment: 3.025
 S           1.42422011737048    1.62838175156117    0.65624604818956
O           1.21063783981754    1.14746091027440   -0.71041680612027
O           1.74611778642130    0.53103045047365    1.53443903351390
O           0.33206223487215    2.46562704279670    1.12273107429376
O           2.67592902368134    2.59943295688503    0.58891361140265
H           2.32263359121684    3.36598096217492    1.02688222991095
H          -1.04182158184715    1.66137848277683    1.01845660246218
O           0.00988796892298   -2.79960140969030    0.96600468835626
H          -0.84408511849603   -3.22419363763550    0.87386287172859
O          -0.99851429059306   -1.24209389798138   -2.82412298819131
H          -1.84326275547912   -1.68702051255298   -2.74628211284579
O          -1.85944871494471    1.10160624665380    0.94177887950599
H          -2.56063829240168    1.61039907581644    1.35332304128479
O          -1.27071869422417    1.14281573503698   -1.76498186138376
H          -1.15640177785197   -0.29641090896351   -2.55518580020485
H          -1.71350085190114    1.08266681003731   -0.90246824328245
H          -0.34050376102905    1.32421535621137   -1.53685682933842
O          -0.40584115754204   -0.71615393703102    2.46114696981324
H           0.44536472990509   -0.26098474840692    2.29605573703601
H          -1.06885831255328   -0.17628001630355    1.99977301666745
H          -0.11600815949137   -2.07180261581554    1.64096257119205
N           1.02299471176915   -1.44870926273899   -1.08853687453144
H           0.28537403578356   -1.48362054247224   -1.83872383340521
H           1.89674252327675   -1.84360608312779   -1.41956243873173
H           1.17030990726591   -0.42631353950359   -0.84935328910859
H           0.67732900804165   -1.98420467846096   -0.24408530820499
