    26
        -50.46060083  Gyration_radius:  2.48565632472 Dipole_moment: 6.140
 S           1.67065976702528    1.37539868923090    0.38782188928952
O           0.64093465310034    1.67196479893100    1.37382044573859
O           1.28195698704329    1.74778352351166   -0.96414416623102
O           2.15857339991996    0.01380832368159    0.46301866040787
O           2.89518881617534    2.31561316624604    0.77212460087724
H           3.58203111614467    2.02854265440133    0.17834530404558
H           1.36369735300811   -0.76750346449259    1.76542933511764
O           0.60349353356929   -0.72798627940361    2.38804268025642
H           0.43130668263871    0.23374942681020    2.37505300885996
O           0.30734425638066   -2.81164037898741   -1.08691133962231
H           0.09235413904242   -3.38542439706932   -1.82342143409183
O          -2.29129220046353    0.22755101090008   -0.69246848880111
H          -3.20230171907016    0.38749132598482   -0.94143549533881
O           0.13978884508997   -0.38737294952179   -2.07674659957266
H           0.45334917745219   -1.91091506357179   -1.47654418156051
H          -0.76347131311657   -0.16481952248518   -1.81271439574662
H           0.69514165002489    0.33997324478382   -1.73170275755909
O          -1.17259753327880    2.52384241873446   -0.30160750338305
H          -0.69667393580224    2.38175810404303    0.54081338443421
H          -1.89316938962486    1.13659684003915   -0.51627658534507
H          -0.43307224038363    2.50697894478712   -0.93216101549084
N          -1.19805449503993   -1.75706576973452    0.82807588516539
H          -1.68357449256821   -0.98455745899225    0.32823327689435
H          -0.64092596589004   -2.30092805377560    0.11670833110766
H          -0.47974314237894   -1.33786109587855    1.52986402971925
H          -1.86094396899399   -2.35497803816846    1.30878311082708
