    26
        -50.46422824  Gyration_radius:  2.57408007448 Dipole_moment: 3.109
 S           1.19409424735727    1.97900917892089   -0.01406209755879
O           0.18249606247262    2.84601079346165   -0.57462733696930
O           1.17617278397552    0.63518774448491   -0.59910189609173
O           1.17733889310500    1.89604501583934    1.43299742431521
O           2.57944998612300    2.62586068362549   -0.44042794230879
H           2.27273781111483    3.36975679007769   -0.94844581990255
H           0.12219811814456    1.03684507436450    2.26087511363004
O          -0.60092881416567    0.48983530707837    2.66729889166263
H          -0.71834330215812    0.83187276847109    3.55449771257129
O           1.22491583322868   -3.20364672641688   -0.63113183518838
H           2.17321146794743   -3.29437740107517   -0.73112136917102
O          -2.13621146458305   -0.84354784842402   -1.01356056003370
H          -3.06517108111022   -1.03940470848888   -1.13863927704284
O          -1.87529164986621    1.41200233760553    0.27967070756223
H          -1.59936993534468    1.18796278124248    1.18015161714832
H          -1.19427226794107    2.01865031490925   -0.07677413753477
H          -2.09166000353012    0.08031613546139   -0.64634271659539
O           0.36106339496886   -1.32544460204839   -2.33566693328394
H           0.92505214981873   -2.64383441063723   -1.38853295491184
H          -0.58462756349860   -1.20932487273222   -2.17169967568551
H           0.77957552611562   -0.54704469509252   -1.93358501332628
N          -0.06380738400152   -1.28369722807548    0.68633497813096
H           0.46619657661556   -2.16216406540100    0.51322906900413
H          -0.23334397827355   -1.03689534956855    1.66686252167933
H           0.48718929456922   -0.49147239118207    0.23978309728925
H          -0.95866470123946   -1.32850060645440    0.16201843261854
