    26
        -50.46060084  Gyration_radius:  2.48582020981 Dipole_moment: 6.138
 S          -0.23616132887398    1.59328272091915    1.49706102893458
O           1.18657611231858    1.30150309556887    1.58865124620476
O          -1.07014223965230    0.48007232610888    1.92826032469033
O          -0.60678830225012    2.11490686683049    0.19775124628639
O          -0.51933916320088    2.75418807210805    2.54733820899031
H          -0.04227037003702    3.49415337935412    2.18451872873063
H          -1.97390456627096    1.24226826689010   -0.35909135402584
O           0.88620679900702   -2.23542475579857   -0.00948838574877
H           1.22547915473943   -3.12848633348856    0.06000330302395
O           0.50194726811907    0.47666128856325   -2.94998045520706
H           1.12780725093830    0.33938738191676   -3.66226504605478
O          -2.52014257505453    0.43387004825841   -0.23602366187635
H          -2.30999326512630    0.23482673410321    0.69725782134695
O           1.94849622060396    0.31470528395096   -0.76666660226135
H           1.79781760376878   -0.61282860306731   -0.53844279025392
H           1.04597553153136    0.62551754472959   -2.13374528756100
H           1.71029151685423    0.81910595056012    0.03665662407516
O           0.86372545599498   -1.21979897770844    2.36646865857797
H          -0.02226580225446   -0.80779970975435    2.40731374535103
H           1.42463723040710   -0.43268629949153    2.26351730407349
H           0.85948355243951   -1.87967410956226    0.93316603457038
N          -1.06121630713656   -1.20707302936141   -1.62027897811774
H          -0.50965151579921   -0.57942675887927   -2.26364212134097
H          -0.38857402140350   -1.67422887227548   -0.97859120370878
H          -1.71931830328369   -0.55921014204340   -1.04440027856713
H          -1.59867593639889   -1.88781134841419   -2.14534812013721
