    26
        -50.46861939  Gyration_radius:  2.455336927 Dipole_moment: 5.505
 S           0.65448048193761    0.44749372618381    2.03335365554615
O          -0.41849119211683    1.08833634211137    2.73239613191827
O           1.21826323385357    1.23590455357004    0.93953075973486
O           0.33623329221434   -0.90243051291889    1.56934861891691
O           1.83159449295490    0.26568495957855    3.08895612996027
H           1.52080277570732    0.79927044903556    3.81316267420390
H           0.69725488093631   -1.80092662286348    0.28191812079168
O           0.89365859985984   -2.27315891051111   -0.56542900259519
H           1.11603045036533   -3.17352677968122   -0.32548309198946
O          -0.54203109971089    0.92491424414359   -2.56896264893704
H          -0.84457288165212    1.52856345246264   -1.84768551126148
O          -1.11343335145934    2.05983401125123   -0.24683068216552
H          -0.28929484023798    2.01254837540802    0.26057213649529
O          -1.59279710950081   -1.32563275583102   -1.58815843291489
H          -1.05779190265577    0.09862473769302   -2.42371960028793
H          -0.80422069675304   -1.80812819075673   -1.30064618682467
H          -2.02476517815016   -1.01753727567348   -0.78030175558763
O          -2.15371079416214   -0.21210544697148    0.95770255912751
H          -2.53671861619929    0.18995482547663    1.74129198803536
H          -1.68543446880164    1.37517095462450    0.13948206239152
H          -1.27545036644243   -0.52897936209290    1.24643977188132
N           1.64671823391810    0.19849980311934   -1.44326598734242
H           0.76724211673883    0.53815617484850   -2.02144784437398
H           2.51847773780127    0.46649295116608   -1.88488167985861
H           1.56077526810152    0.63609933881963   -0.48478400696793
H           1.57718095328844   -0.82312303217809   -1.32255815791108
