    26
        -50.46862069  Gyration_radius:  2.45500322296 Dipole_moment: 5.500
 S          -1.21566572658144   -1.75505862664464   -0.44857561121049
O          -2.48055551277594   -1.31761682840569   -0.95746505940981
O          -0.98447842420345   -1.42330434250554    0.95615694353676
O          -0.07316342262269   -1.33764042028272   -1.25990095293301
O          -1.22724983710003   -3.34481123497136   -0.52278135121159
H          -2.14926422661378   -3.52140541172184   -0.67934861356226
H           1.44468535558923   -0.87506795884049   -0.97967937836221
O          -1.80984309601133    1.19252557220341    0.90955583155456
H          -1.74887731370795    0.23419387474520    1.03857299888436
O           0.53315302086987    2.13478013794241    1.70337120238293
H          -0.42836319633033    1.96076825545232    1.55763301697759
O           2.33895063476874   -0.52809930934115   -0.73623846920721
H           2.95850275632698   -0.93270373530437   -1.34463079375099
O           1.27152979895915    2.11226524301794   -0.86293349013919
H           1.76573859147487    1.28193083606983   -0.92350732473552
H           0.43364372882916    1.95601712305520   -1.31868046536977
H           0.87479804583890    2.36306792574220    0.80840712020858
O          -1.17603253319952    1.02000965944016   -1.78626262890177
H          -1.72906023782456    1.32235032629218   -0.05050399764958
H          -0.77317648382839    0.13497635026475   -1.68916609993306
H          -2.05245555395769    0.85086763599311   -2.14067128471642
N           1.26770052847000   -0.32343864046195    1.76557562378936
H           1.63973678095623   -0.68474730985608    2.63611830908535
H           1.93420750126354   -0.43911346001564    0.98742324490054
H           0.37880982502102   -0.82941996330133    1.49799656281102
H           1.00672898676940    0.74867429155628    1.83953467710672
