    26
        -50.46862058  Gyration_radius:  2.4552382696 Dipole_moment: 5.502
 S           0.53784248279258    2.09053928327454    0.31950962442737
O           0.60186419454442    1.18061317119054    1.46175139791744
O          -0.65151610575076    2.88613260295143    0.26476804309517
O           0.82512965440287    1.36686151465885   -0.91817621114850
O           1.74909086120709    3.10617268939231    0.50565744952430
H           1.29028441498031    3.90858261148202    0.73251856942228
H           1.45138533128560   -0.06636562457625   -1.30363738226790
O          -1.09598298829283   -2.34541228398382    1.02180619318065
H          -1.58076738943650   -1.52399725501697    1.27960857958704
O           1.77327970226872   -0.98694097082261   -1.47238803730572
H           2.39492298039549   -0.92480561291775   -2.19863166331795
O          -1.93468354255321    0.14608097304072    1.33042267368059
H          -1.14055384245298    0.64572373126862    1.57259644957991
O          -1.74895672541903    0.86883317937126   -1.34144617020073
H          -2.20996222664221    1.71063089663558   -1.30614590478752
H          -0.80266614530966    1.10201032713715   -1.27002426521987
H          -2.10716758246164    0.38308809308883    0.40347427899633
O          -0.94434010769558   -1.83849551998038   -1.59576756327932
H          -1.17245256310334   -2.37215106801417    0.04036660401145
H          -1.40526275172777   -0.99229370498138   -1.67049447033641
H          -0.00352820883465   -1.63970682130050   -1.70858613880802
N           1.26508377559794   -1.35310633355536    1.18352465336288
H           1.67167030807214   -1.43578478299974    0.23959278614283
H           1.06580548341101   -0.32874443108685    1.35261474976520
H           0.28515043926500   -1.86592366834333    1.18286124646354
H           1.88633054147226   -1.72154098580062    1.89422450732379
