    26
        -50.46862071  Gyration_radius:  2.45503433629 Dipole_moment: 5.502
 S           0.23643457419355    2.01801686109428   -0.79416084649625
O          -0.96483848747277    2.38298134225788   -1.48273429919855
O           0.99032053684741    0.93881893664435   -1.42953005003689
O           0.04229935001779    1.72929552979468    0.62592313456433
O           1.18520456414182    3.29511179971473   -0.83921373868696
H           0.74952025996250    3.83221108359153   -1.49282705284974
H           0.66349023353888    0.69946562168484    1.69823906710383
O          -1.08434349455305   -0.78375409079967   -1.93400259213395
H          -0.37432770281132   -0.12880856597591   -2.00955465169692
O          -0.04993278536495   -2.73979014816820   -0.48107923378569
H          -0.49900416218073   -2.19700126182971   -1.17373265073904
O           1.03031683547931   -0.00621264169536    2.28717378753970
H           1.22136486175741    0.41627063770224    3.12544092462552
O          -2.29638460224403    0.55565427452762    0.17212703620943
H          -1.48470867959484    1.05273768376516    0.39356340787153
H          -2.83238129807696    1.17608888986647   -0.32800808644911
H          -1.70736786192385   -0.40562001049175   -1.29060559163260
O          -1.22751103153884   -1.62202721168096    1.63909343844401
H          -1.81480394303244   -0.97174855322408    1.23117762785008
H          -0.56776159926512   -2.56211512703121    0.33752197475251
H          -0.50103254813290   -1.11552106786072    2.03023558648069
N           1.89150190421438   -1.11730362070919   -0.05210524116087
H           1.61264533404861   -0.27732355525450   -0.63037075926205
H           1.13486480204765   -1.89886859511294   -0.25178960619060
H           2.82714720252839   -1.42449015177470   -0.29083064555283
H           1.81928772669789   -0.84606805901955    0.94004908060004
