    26
        -50.45966282  Gyration_radius:  2.59289667735 Dipole_moment: 3.937
 S          -0.49661100955022    2.21536850319088   -0.86611040705230
O           0.81937566956105    1.67432841307837   -1.11638095272773
O          -0.83932489788747    2.12646153932660    0.55227377182696
O          -1.54119986448424    1.67751072416567   -1.71693213221680
O          -0.42113544833587    3.76729670169684   -1.20768398696474
H          -1.34076098727333    4.01183404840828   -1.24097030158179
H          -1.71279623590644    0.10094587178730   -1.47850280914345
O          -0.44094149216837   -1.24110741445741    3.06778598985744
H          -0.08669349180247   -1.92171648716092    3.64150857885284
O           1.92357863117840   -1.31563977198478   -0.05889971419699
H           2.86769665180299   -1.41311476410738   -0.18661875801327
O          -1.74581711426830   -0.88735722734260   -1.40586355176274
H          -2.58700551149874   -1.14992341976108   -1.78292852077886
O           0.86360355757366   -0.67131856108520   -2.32239106349548
H          -0.06755194046244   -0.92664472516698   -2.22604100880788
H           0.88669376647687    0.27952196926920   -2.08389203951056
H           1.54899803303405   -1.11146778216192   -0.97228108991694
O          -0.61805793911648   -2.31676981741951    0.66958076660074
H          -1.12458117236644   -1.82593569087869   -0.00035040846050
H           0.30723206632603   -2.22182173565707    0.40531362322478
H          -0.67627655244083   -1.69290421588466    2.21759185069356
N           0.91342130427128    0.57028943782337    1.63174498027314
H           1.62522200151579    1.13561910735514    2.08134485769463
H           0.41650427976163   -0.04531606450645    2.32273011102941
H           0.18590994579956    1.22135731156617    1.17937940676268
H           1.34051775020817   -0.03949595008520    0.89659280780274
