    26
        -50.44902905  Gyration_radius:  2.6266983929 Dipole_moment: 5.780
 S          -0.61062336100042    2.44880056353541   -0.27141484740798
O          -1.03147717521105    1.27300341994639   -1.02923159141972
O           0.83346123866784    2.44689152500880   -0.05521643869240
O          -1.39512455795711    2.74953042148108    0.89376008815022
O          -0.87200309906075    3.66417442174565   -1.29416060507557
H          -1.15723620761984    4.39725491588500   -0.75473899181924
H          -0.71333343254342    1.32674713970111    1.62651166719886
O          -1.39070249976616   -2.34711881624842    1.75766780308939
H          -1.61674124941761   -3.23333003056000    2.04054035125207
O           1.43005308713230   -1.83413578932149   -0.91809207620135
H           1.60377965304376   -2.63971138168348   -1.40611343021443
O          -0.39142727293211    0.42818031749545    1.78578215179922
H          -1.16904293891021   -0.11815910348290    1.94267242927133
O           1.21909693234787   -1.76506188111409    1.90760023482463
H          -0.42187670518089   -2.23449685808257    1.91997741186029
H           1.50596093599776   -1.82330785648713    0.98507528823900
H           0.94737755582130   -0.84106703516194    2.02758515059422
O          -1.11682182890200   -1.46359810677460   -0.79789505598242
H          -1.37143784469529   -1.75972116870469    0.09879520153669
H          -1.24572181194988   -0.49939280032857   -0.81163194228317
H           0.42272240815009   -1.74707442991350   -0.86356124340565
N           1.35210927118190    0.69520746423794   -1.79392100548456
H           1.83011619367775    0.96560961178364   -2.64565196318975
H           0.30413080494989    0.75512921057269   -1.86482921050388
H           1.60412841668865   -0.26822749032713   -1.47406579937534
H           1.45063347749174    1.42387372679335   -1.00544356675399
