    26
        -50.45788892  Gyration_radius:  2.41150661969 Dipole_moment: 7.660
 S           2.09770613928353    0.06954312331476   -0.86108149883306
O           1.09993623895230    1.17797874269314   -0.77059660881599
O           2.82662500896986    0.10035711898651   -2.08359452327553
O           1.21719633438104   -1.24836171514327   -0.81646695988230
O           2.85148048146180   -0.00116306056377    0.37741999317400
H           1.87813673468017   -0.75946731671963    1.32744498616853
H           0.54359689023637   -1.22240535241325   -1.53174405973650
O          -2.29065709270150    0.80875737690821    0.89125762105159
H          -3.18622326401829    0.74848338669532    1.22474275940265
O           1.18989124275447   -1.07757336517399    1.98495615059062
H           1.63160564284623   -1.72187836884804    2.53927135609351
O          -0.89182657616324   -1.19715665972291   -2.38248802828532
H          -0.71887978545156   -1.27684866968044   -3.32158512108948
O          -1.25617621596162   -1.57130222741982    0.60213745959859
H          -0.35359277032952   -1.55084749644214    0.96490993171559
H          -1.96828174099627   -0.13034001235000    0.77647904779901
H          -1.15917037105173   -1.75355422613035   -0.33982399155874
O          -1.37444434964729    1.29423694336613   -1.74895194566923
H          -1.84564744005700    1.28481484479351   -0.90307173311488
H          -0.43121871658753    1.41727340096292   -1.51830186683633
H          -1.18323040052936   -0.25593696441485   -2.23022702469991
N           0.25664737722083    1.39602821494293    1.60050187392382
H           0.67779999421169    1.36105344092975    0.57006454947111
H           0.58606591455085    2.21382960256545    2.09950327296733
H          -0.77466646812261    1.37911364972674    1.50277384971059
H           0.57732719207107    0.51536561913516    2.04647051012931
