    26
        -50.45872256  Gyration_radius:  2.53245129899 Dipole_moment: 5.626
 S           1.23585806256801    1.50797808197013    0.41651207986783
O           0.55837988703029    1.70390410976136   -0.86901000225565
O           0.95434706883722    0.19923022662891    0.95840672954778
O           1.04174348508698    2.58590090733548    1.35403427880963
O           2.78379053702820    1.51460911994514    0.02332847775253
H           3.22742789867689    1.51335240091336    0.86571156934524
H          -0.25998700731066    2.17938641004162    2.33544763114592
O          -1.14337994991255    2.00263300521187    2.72438093674125
H          -1.47645409828860    2.85484703520117    3.01308889973510
O           1.63960155267242   -2.61684485472216   -1.28539759358837
H           1.56486908392829   -3.51870752639659   -1.59992665874356
O          -2.05388579310066   -1.19186878617146   -0.51482538183160
H          -2.97662568303518   -1.35509375356475   -0.71380091700575
O          -1.88534535552074    1.26948359328703    0.25433317442549
H          -1.75483730784765    1.43340760694504    1.21348548073979
H          -1.06615310722813    1.57470615935507   -0.16850302074225
H          -2.01986955739890   -0.27155088474490   -0.11147233078866
O           0.16642551618929   -2.33658164711512    0.85760276122307
H          -0.72812888666278   -2.15682005899578    0.53750839941427
H           1.19603192892975   -2.59494060701029   -0.39160627874056
H           0.50985694250410   -1.45580330352029    1.09784713985340
N           0.09999692322739   -0.57351222113673   -2.02309257195421
H           0.38152606111277    0.35259462925262   -1.56139227547884
H          -0.02444255289998   -0.43232189691699   -3.02004797878349
H           0.82185577196779   -1.31533832431411   -1.82799379293456
H          -0.79260144034693   -0.87264942136840   -1.56461875577493
