    26
        -50.46709007  Gyration_radius:  2.46695676228 Dipole_moment: 4.124
 S           0.30140212719381    1.96398320721633    1.31939782943326
O           0.71652898051410    1.91005715295533   -0.09118849094765
O           0.01752791839063    3.27969724038527    1.78846989958589
O           1.57775437268080    1.45331780422839    2.14557298977680
O          -0.72258744267304    0.95736457036207    1.56747410197878
H           0.09984665695323   -0.42317914580327    1.72997612410127
H           1.96305128946577    2.28586490413363    2.39416213626941
O           0.55754086546638   -1.38023630639829   -2.22481998531200
H           1.07590004984951   -1.75769532694957   -2.93553827555970
O           0.62864079115012   -1.25842034246722    1.74770841059246
H           1.03487997119322   -1.29146014095342    2.61468462661159
O          -2.59777149976223   -0.20754558065460    0.01289485563597
H          -2.15380420158523    0.23352202608831    0.75931713984528
O           2.07086476672612   -0.37576480063118   -0.37982042979655
H           1.21420162981996   -1.03944107885885   -1.54308271266822
H           1.73555587108784    0.53849986995556   -0.29551139328600
H           1.75344523421882   -0.82291375887071    0.42708622729315
O          -1.08191434059156   -2.39727191094098   -0.13756335491762
H          -0.48746411997375   -2.21502759616801    0.60573579510058
H          -2.23591397062485   -1.12626430740592    0.00923055590693
H          -0.55844164783443   -2.23936706948632   -0.93624754206286
N          -0.98865407745309    0.79478597759119   -1.74634167858103
H          -1.35902364858634    1.39665616294444   -2.47262829997957
H          -0.47111274039526   -0.01436165227648   -2.14405703225895
H          -0.31972396218306    1.32700781026563   -1.11935712700376
H          -1.77072888306322    0.40819231173951   -1.09555433975323
