    26
        -50.46709005  Gyration_radius:  2.4669318079 Dipole_moment: 4.123
 S           1.86125223266837    1.46233823092110   -0.29269689120256
O           3.10079521784433    2.08277710664336    0.03951591970467
O           1.96715274251266    0.01733320108176   -0.54910969816556
O           1.39634071058776    2.09702311771885   -1.69034620777410
O           0.74979554514721    1.71877056554952    0.61408538559663
H          -0.56111392784495    1.66116966040362   -0.32772015989533
H           2.23495851290881    2.38271258754818   -2.03440199481064
O          -0.43784052691046    0.26605315785033    2.55532205637909
H          -0.02541195584192    1.00047638726591    2.06613029893102
O          -1.12741567257686   -2.39288159785552   -0.40957777339872
H          -1.39522215314328   -3.18675928259655   -0.87249389138411
O          -1.34437684993696    1.54315381489763   -0.91942811150227
H          -1.41529720037878    2.35502402727883   -1.42300362754302
O          -0.15595780625272   -0.62984664314650   -2.03781436944201
H           0.71420533066971   -0.42348545549472   -1.64330202884170
H          -0.78988222824394   -1.75469809628375   -1.11019368615189
H          -0.69776865564458    0.15937536044095   -1.84962153168635
O          -2.46302962194955   -0.25209637781934    0.89834624483753
H          -2.19039594945647   -1.08249995302585    0.48242739287439
H          -1.31700898169645    0.13632114339668    2.12496575696832
H          -2.29408815182796    0.43860862381713    0.24000744160678
N           0.85235542861887   -1.54830328912194    1.23896275973635
H           0.12983504298852   -2.07397661102113    0.70759364353237
H           1.38554643479868   -0.94711840120736    0.54749794035500
H           0.34290115561494   -0.85897055320181    1.90963358535294
H           1.47967131734795   -2.17050073406018    1.73522154594502
