    26
        -50.46365343  Gyration_radius:  2.41768568371 Dipole_moment: 9.112
 S           1.93564084510092   -0.43239646959176    0.06884050968054
O           3.02659041294964   -0.85474603231256    0.87730849762610
O           1.20896643744682    0.73408336094655    0.56871057677599
O           0.96887121503126   -1.53137156300793   -0.20507971448933
O           2.46909731024561   -0.01571418390322   -1.35286606610292
H           1.69224961250082    0.33177588002622   -1.82791380811848
H           0.91026047181216   -2.07442116135368    1.45090190539882
O           0.91269828828031   -2.05320402208539    2.42220039211137
H           1.81866234962081   -1.81794495450598    2.64302058757437
O           0.24396765598226    1.00721013383606   -2.60360804275021
H           0.54230239499773    1.55525326179584   -3.33099918458154
O          -2.39973333038455    0.55097472793062    0.66617124733580
H          -3.25805625509830    0.47708160827210    1.08431397476733
O          -0.53076677046275    2.36074115679088   -0.54093898923923
H           0.19240992977328    1.94501724664322   -0.02382515130593
H          -0.05611572875540    1.63404179911865   -1.87800469846188
H          -1.34118199346967    2.01808163057940   -0.14029136543078
O          -0.56970143420220    0.21137279767554    2.44276769110851
H           0.16051928730091    0.55683221743538    1.88850737595961
H          -1.72032018394297    0.41260538886976    1.40389502654922
H          -0.26366385473028   -0.68998598719181    2.66158937773293
N          -1.22294058254609   -0.87067612600018   -1.27259518989115
H          -0.28003937052318   -1.19253667489177   -0.78380958959209
H          -0.92710024064897   -0.24065367472039   -2.02963847966448
H          -1.72737064162131   -1.67372553631530   -1.63093678721228
H          -1.78524582465705   -0.34769481403927   -0.55772010577861
