    26
        -50.45890664  Gyration_radius:  2.59830767443 Dipole_moment: 7.953
 S          -1.99374543122605    0.75798525125073   -0.76366234484043
O          -2.43099010950972    0.54062144478983    0.61597766591506
O          -1.09324331354078   -0.27190596626894   -1.22132864751188
O          -1.46226733326010    2.10325325767396   -0.92951986114973
O          -3.28945453100729    0.67511575831662   -1.66292724098957
H          -3.77082303622609    1.45195583577651   -1.39717479119852
H          -0.01388258317578    2.26072170506795   -0.32981533896451
O           2.46492845071944   -2.02177642371499   -1.45829789578813
H           3.19799649639799   -1.86841143409476   -0.86055711826719
O           0.72543547548131   -1.74733997880867    2.15171566303556
H           0.26594287962700   -2.36064241552468    2.72714707188033
O           0.86320637162259    2.28858678765739    0.14785174975008
H           1.13782086622744    3.20707649245385    0.13889249091677
O           0.11087616293447   -2.50184752038915   -0.21975040323294
H           0.53006810968646   -2.07334823012879    1.21113236209491
H          -0.42973962415672   -1.79534956821365   -0.61405201495690
H           0.94478134034282   -2.50282370490484   -0.73633300233202
O           1.42579556261211    0.41694518063539   -1.92641689280787
H           1.54099723312860    1.08390828121526   -1.23816518989598
H           2.16352205263617   -1.13641665771630   -1.75923133537274
H           0.48882843879236    0.15825032144382   -1.86340522580890
N          -0.26662302368800    0.67516286847592    2.01792764468854
H          -1.20252650701297    0.58610242164682    1.49818822812298
H          -0.41007592267289    1.08996015967279    2.93279671582787
H           0.16592505179341   -0.30095983550556    2.10754934564550
H           0.33724693346318    1.28517594921690    1.43145836523998
