    26
        -50.45890667  Gyration_radius:  2.59868609805 Dipole_moment: 7.947
 S           0.44973574194147   -1.95172812791067   -1.05969357963846
O          -0.54787621100377   -0.92920162819976   -1.26104455469554
O           0.39763613542937   -2.52107050520488    0.28740526349084
O           1.79954530664715   -1.51059432741604   -1.38074501220041
O           0.11552213091117   -3.12919685758303   -2.05796996396876
H           0.87522816518672   -3.69515359286888   -1.96655165868937
H           2.17588116361916   -0.15338092895445   -0.67533275304845
O          -1.33793635632216    0.62005545479926    2.45787327159901
H          -1.90194489107966    0.15140526695717    3.07480922313027
O           2.35427286000294    0.66122119757041   -0.12495049345138
H           3.28332486530783    0.86306880613645   -0.24835845676696
O          -1.97403124393901    2.75995484019629   -0.88515471769229
H          -1.66644483542658    3.41113482298112   -0.25304876602272
O           0.26171413168329    1.58997431244624   -1.82359174666799
H          -1.17477327506695    2.42451139796599   -1.34757962432428
H           1.02936653317373    1.57801712089256   -1.23852522549298
H          -0.07134379955313    0.67475318073960   -1.81036595359389
O          -2.48535596155639    0.33022706741641    0.18395492271376
H          -1.81477372136124    0.55543533574571    1.56484370613602
H          -2.48391796250658    1.21278339121952   -0.24406513116647
H          -1.89792971752424   -0.21794255764082   -0.36488138442583
N           0.93439641743402   -0.53935851225745    1.85416561192658
H           1.50553898062693    0.07616066465155    1.24098447632648
H           0.02684764927987   -0.04453213850558    2.13547867306100
H           0.68381229881741   -1.40298209409967    1.26690502150495
H           1.46350559534300   -0.81356162908140    2.67543883194933
