    26
        -50.45653058  Gyration_radius:  2.55840146042 Dipole_moment: 6.241
 S           0.52457037776305    2.13794625415390    1.30787858924445
O           1.42577716742017    2.95862453709755    2.05254522127911
O           1.03134492309027    1.70411177669004    0.00601299126079
O          -0.75080766930526    3.07491999823112    0.97977780272731
O          -0.03252741767159    0.99313167760037    2.02452522750568
H          -1.07113812598997    0.75548058399938    0.83808918341400
H          -0.39700165617151    3.94054370456670    1.15767872740628
O           0.65162833036914   -1.60436973906759    2.03151506858839
H           0.38496285613070   -0.70776025622025    2.30918035628323
O           0.37101533364377   -1.89565946776433   -2.09516421453135
H           0.62695895885013   -2.27947938842507   -2.93433802410216
O          -1.74245581289995    0.63541328978178    0.12224353431844
H          -2.30312064716661    1.41013650120909    0.20128397349799
O          -0.96994386455748    0.33401169942105   -2.43530460504273
H          -0.12157145795702   -1.05873958183304   -2.30118445720408
H          -1.85097332546146    0.30686674634506   -2.81290753619009
H          -1.08562858962481    0.59298046439626   -1.49486522093814
O          -1.30540096472525   -2.13892537028923    0.25476213279682
H          -0.13654889403936   -1.97499391415750    1.57725716296240
H          -1.65338751333780   -1.23580981276565    0.21948542419741
H          -0.81108463349896   -2.26844597433245   -0.56416570018859
N           1.86788132856957   -0.74720487183117   -0.10257950416791
H           1.43693167274101   -1.23341353494851   -0.91057589700162
H           2.87947857470706   -0.79848606878151   -0.13640784807462
H           1.55305462776995    0.27758046038833   -0.10351599820610
H           1.47798644135453   -1.17845972345718    0.80877360017938
