    26
        -50.46365345  Gyration_radius:  2.41759377354 Dipole_moment: 9.112
 S          -1.90072845707527    0.37390279642007    0.43111886520857
O          -3.17077138160653   -0.17537441866629    0.75905266968211
O          -1.29394774381551   -0.15417904900756   -0.79016436716185
O          -0.92478182740868    0.26364939821002    1.55036718237268
O          -2.04755492059210    1.92290455128960    0.18977050205379
H          -1.16744285458997    2.22299652025917   -0.10237564458069
H          -1.29886584290764   -1.40497262275239    1.89035532889391
O          -1.54545693550358   -2.33461310196312    1.75282323745525
H          -2.47142915379877   -2.28945526788059    1.49703964752558
O           2.16745711744483   -1.18306252077229   -0.63866055539375
H           2.89055976126433   -1.81057761834334   -0.61935254151678
O           0.44601655924873    2.67958467214361   -0.68747884350979
H           0.35462389230280    3.51767863125070   -1.14320488023830
O           0.70948944501197    0.66092116252371   -2.28166587983501
H           1.38402091008559    0.03102060679427   -1.99376380125492
H          -0.13083572325165    0.29894226204751   -1.92658568070719
H           0.56916170164821    1.97998902203139   -1.39813423930166
O          -0.05908812041072   -2.46577473246382   -0.50518552669210
H          -0.43343967916245   -2.70363201906001    0.36500023317109
H          -0.61696840320810   -1.70816860215736   -0.77824080246980
H           1.32082895002184   -1.73571433140833   -0.58623397841014
N           1.48142567378516    0.81038796066860    1.01062093313068
H           0.43791031408571    0.54233434583467    1.27668577281910
H           1.40198441221149    1.68588532894350    0.47701031854248
H           2.03935971666594    0.93274378811266    1.84815742303398
H           1.85847258955419    0.04258324794610    0.40304463718422
