    26
        -50.45653056  Gyration_radius:  2.55841721989 Dipole_moment: 6.242
 S           1.21813796615377    0.45280198762038    2.20648175696064
O           2.27981529933020    1.05546239404732    2.94801731433503
O           0.46467292729279    1.37871819851973    1.36104616293400
O           0.16083487575154   -0.07686379546122    3.30832592669027
O           1.57572277268144   -0.73595448502509    1.43614014395547
H           0.03082913064167   -1.02707343984379    1.16802190115137
H           0.44431047421337    0.39858177781983    4.08275886484480
O          -0.92812122767948   -1.23012671256497    1.03887674111463
H          -1.23525754082208   -1.45714586601225    1.91919411364885
O           2.15333509758521   -1.06092756973333   -1.16700658282414
H           2.16712691802259   -1.11699874678548   -0.19294610931543
O          -1.37743456701248    0.74015161163617   -2.38295887471735
H          -1.89571006396035    1.24609907222452   -3.00941576980599
O          -0.37363378064484   -1.87422661613199   -1.64106351452713
H          -0.75871376505121   -1.10538982297119   -2.07970759113856
H           1.36146784299274   -1.57411082265158   -1.44017260025504
H          -0.66399460074574   -1.83151471157440   -0.71809797808579
O          -2.57318666146765    0.59575924594699   -0.05170476679414
H          -1.88381981305338    0.10679484257559    0.44883911684594
H          -1.88485020213743    0.73459490598711   -1.52975937447843
H          -3.37959689822965    0.08515437722173    0.04000695903067
N           1.02306672533071    1.28220387079816   -1.16870102557646
H           1.58352375776330    0.36222250027286   -1.25978767808169
H           1.57005104700251    2.08272475248013   -1.46381466206997
H           0.15046643718206    1.19527678656687   -1.72181429403509
H           0.77095784886456    1.37378627503823   -0.13075820980890
