    26
        -50.45730966  Gyration_radius:  2.44885278332 Dipole_moment: 7.981
 S           1.03380024986481    1.98272191624360    0.92440109100734
O           1.40003502617035    3.34335736868189    1.09720996909001
O           1.05078125143347    1.55763594024856   -0.50961121056840
O          -0.22143719133119    1.56759940552112    1.53575444330728
O           2.13473497571641    1.05234153282955    1.59259002857117
H           1.62713544637999    0.24886925323176    1.79794023450284
H          -1.58860038635664    1.21861880064195    0.87751732684371
O           0.88234969510353   -1.34645281040055    1.78745850772024
H           0.82189380196145   -1.64710920319312    2.69478094335582
O          -0.54323066616699   -1.51484780277452   -2.06246656224911
H          -0.77855598557181   -1.86981029184593   -2.91981570059716
O          -2.44174858793820    0.91257624863666    0.45583727164666
H          -3.14300755796646    1.34970589414881    0.93990783733713
O          -1.13772963957302    0.98539223940170   -1.93246715515512
H          -0.33032756779019    1.35865685821405   -1.52169159166305
H          -0.81968699319589   -0.53998406399328   -2.07430032517962
H          -1.80987116934540    1.04051610494238   -1.23124153055590
O          -1.43169728835483   -1.61012340515120    0.60861763675141
H          -1.90924244286691   -0.75864166824620    0.63136597998772
H          -1.23201425583182   -1.76556013772292   -0.32621391096642
H          -0.04450815730980   -1.41029856083851    1.41308529547267
N           1.72121170479703   -0.86155238066177   -0.76513892993093
H           0.96578592808566   -1.27056961905738   -1.35714159916846
H           2.63967927759383   -0.99102163819410   -1.17327547714912
H           1.48322143408081    0.22706687869745   -0.66523266049664
H           1.67102911840288   -1.25908687935066    0.18213006808365
