    26
        -50.44985152  Gyration_radius:  2.67283835492 Dipole_moment: 3.415
 S          -0.56751507821429    2.40987528176466   -0.46265744991643
O          -0.18998858750025    1.87558016461056   -1.77553566572991
O          -0.16639385177808    1.50129760056456    0.59971030780042
O          -1.94526744823707    2.82655336364731   -0.41769584461158
O           0.30934245265760    3.71361900731315   -0.24721498715793
H          -0.20318745054017    4.39825206337853   -0.66533746967428
H          -2.65349190953254    1.45875859920353   -1.15600272314162
O           2.27017220860529   -1.71467183426441    1.96585496719057
H           2.95476544995354   -2.35844166533535    1.77962733927152
O           0.90393163928712   -0.35620817578870   -1.56472460589709
H           0.52384541099035    0.58135362544953   -1.79842164787453
O          -2.75612174337712    0.61665969496893   -1.64390554619847
H          -2.32699919904093    0.76977436140592   -2.48958935514978
O           2.22743525205434    0.39052755443595    0.37934308387891
H           1.48326742571948    0.95681968432803    0.67570118571396
H           2.29678979068413   -0.34849955389195    1.03851220946540
H           1.61402233416923   -0.10132813547353   -0.76145863696300
O          -1.14958042874045   -0.84299067371043   -0.13565490769891
H          -0.88742518529278   -0.05557464852167    0.38651110234372
H          -1.89327284014111   -0.51133440368677   -0.69214167320070
H           0.10986200682724   -0.76779964796177   -1.06398830140815
N          -0.07941568539689   -2.97829693493338    1.58951430527645
H          -0.59941642792184   -2.33536186272252    0.99690627952718
H          -0.08884187727141   -3.88539641050694    1.13981156322393
H           1.39971504458831   -2.18166256823036    1.86085538039150
H          -0.58623128258025   -3.06150448607742    2.46198110057974
