    26
        -50.45406768  Gyration_radius:  2.52817828039 Dipole_moment: 5.877
 S          -0.95427337990951   -1.95009782788307   -0.75587096362877
O          -2.24281074151271   -1.30026751720046   -0.47929787241077
O          -0.60416448828598   -2.95348756694652    0.21347261290425
O           0.06741283009037   -0.95789818631047   -1.01695356098577
O          -1.16437048163589   -2.73018978309543   -2.13508076570369
H          -1.40168173764514   -3.60095778892254   -1.83258524450957
H           0.16147053656570    0.46980666320588   -1.67377564728308
O           0.07905000311720    1.40926215928713   -1.99724549530101
H           0.28578375066422    1.38489125290096   -2.93208111189916
O          -0.29990407685956    1.29919787287528    1.86198408298121
H          -0.21940432227740    1.78000486121128    2.68626239672010
O           2.99392134556311   -0.29974833023822    0.60733574376278
H           3.66658738464523   -0.38676270048535    1.28430980485661
O           1.63411526572159    1.96701091987453    0.29720849907373
H           0.49396878122065    1.57032429863668    1.29559264251930
H           2.23020413488245    1.18339826170697    0.36199485846046
H           1.23560346422292    1.90454471656184   -0.58285938093501
O           0.85483907284395   -1.35241426033302    1.81482025534609
H           0.29188205863708   -0.56948180933379    1.87613191984024
H           0.37123892177770   -2.00015862085733    1.27178732784898
H           2.21134833628495   -0.79867932805596    0.94349131852951
N          -1.95950255667421    1.21739789705522   -0.22403972245872
H          -2.13419870570122    0.14419153124619   -0.34543210969327
H          -2.83037268622528    1.73594712878295   -0.22177666735959
H          -1.43652063889009    1.32478072513001    0.67719928036727
H          -1.33022206062189    1.50938545117817   -0.99459221104376
