    26
        -50.44985200  Gyration_radius:  2.67248968175 Dipole_moment: 3.393
 S          -1.51452360375753    2.00299227718257   -0.16241267081507
O          -0.93672104119984    1.88771515085547   -1.50569906131604
O          -0.77967943145996    1.18337636500622    0.78807737545872
O          -2.94064935462394    1.80278132220598   -0.16149113798044
O          -1.26511692635426    3.49948861455813    0.29937984224822
H          -2.01467480958859    3.96880028249316   -0.05294635021194
H          -3.00737180294419    0.40277639712256   -1.13769048806259
O           2.76487891377383   -0.91967936692571    1.86502358245003
H           3.65421907094650   -1.19142164060188    1.63473855792057
O           0.98616948574278    0.29878515951204   -1.53209683042177
H           0.25208849955991    1.02192404800442   -1.65869515318697
O          -2.74474534208820   -0.31725824117669   -1.74623076463443
H          -2.41056358336989    0.13172068222568   -2.52695652778609
O           1.86122169800414    1.20364311252162    0.59021657657311
H           2.22729656852801    0.46438707575331    1.14252400734418
H           1.51849782825629    0.69128794796428   -0.65076617644295
H           0.94625200032708    1.35950256191297    0.90770965920872
O          -0.69001975551542   -1.20753845895592   -0.34215910297526
H          -0.78485809696364   -0.47544095836146    0.30322538939363
H          -1.49894682572445   -1.12682519622703   -0.90067244566729
H           0.43144843643490   -0.47626128060253   -1.15445191357487
N           1.14537903058546   -2.95462267822149    1.16205660091628
H           0.41586657188205   -2.49888093135548    0.61891198349672
H           0.70490071468766   -3.35984860640533    1.97864997468489
H           1.51531915680839   -3.71337045169343    0.60294215137839
H           2.16433259811355   -1.67803320678366    1.63881291198337
