    26
        -50.46225670  Gyration_radius:  2.49593538166 Dipole_moment: 6.726
 S           1.05328309223197    1.69772914064578    0.33610199010454
O           2.31915892331227    1.04646255331516    0.64738265342499
O          -0.08681552218880    0.97956966723435    0.87542201593969
O           0.92683535505193    1.96195053297272   -1.08536093037502
O           1.06861852977837    3.09647119442924    1.06791822996193
H           1.84034525233691    3.51290988634032    0.69871233325087
H           0.96715805102138    0.66220926029992   -2.01786908745680
O           0.01058838728929   -1.69464311531647    1.52202798597758
H          -0.04532420468766   -0.73412991877548    1.65018082376713
O           0.97367914256571   -0.21000613416532   -2.49492350668013
H           1.30574442198596   -0.02990983376450   -3.37555772846123
O          -2.75001789365713    0.62827542106090    1.67908264998703
H          -1.81500514106652    0.85707142522517    1.57625941373372
O          -1.57150271830603    0.00879020080569   -1.22974587781300
H          -1.07358384715907    0.47937154242969   -0.54043808472005
H          -0.93218082778614   -0.18037957435436   -1.92489940720490
H          -3.20215234037868    1.05273234182071    0.94650334100254
O          -2.40548170078901   -1.87672959861587    0.54225322097801
H          -2.23238297626773   -1.35938791076681   -0.26757162340543
H          -0.89365094274396   -1.94388651037491    1.17937460136911
H          -2.77688591583834   -1.22011682302941    1.15571367630230
N           1.88088172767665   -1.37496534993165   -0.20741231247898
H           2.63180971239049   -2.05671071814187   -0.20408512564170
H           1.53074091379102   -1.19986204327022   -1.16581356609317
H           1.07025436133361   -1.66627089435155    0.46728778542918
H           2.20588618007171   -0.43654472168504    0.16945653910754
