    26
        -50.45539225  Gyration_radius:  2.45006212086 Dipole_moment: 7.278
 S           0.78820833998075    2.24599171195801    0.41710808884655
O           1.43177586061495    3.33200052362735   -0.25015217334544
O           1.65967189899093    1.08515280882976    0.66677385557042
O          -0.25231951773815    1.62960441980493   -0.66216000827405
O          -0.00825188774635    2.58070484718691    1.57720726324302
H          -1.07264054280211    1.42543713598346    1.69067251620692
H          -0.50438741262196    2.37978001583038   -1.18945644777705
O          -1.70206252269101    0.65907711397400    1.78009127847989
H          -2.44257806306464    0.98375120063621    2.29435725502755
O          -0.71224490550707   -0.22981975382194   -2.75144071804996
H          -1.02857705840809   -0.89420720763822   -3.36590957650659
O           0.38958402830116   -2.50036074128772    0.32246258805089
H           0.63066005367722   -3.37068438535786    0.64014105028690
O          -1.87634274502488   -0.94067419136288   -0.48829047075520
H          -1.25862701890549   -0.33563286113895   -1.93039789825845
H          -1.24900925814894   -1.61762367481079   -0.19966479418314
H          -1.87490193888882   -0.27155134596871    0.21770187472637
O           0.56475224239372   -0.77961775429447    2.22719208917199
H           0.45779473688481   -1.88150783083339    1.11979794090070
H           1.08552918266399   -0.06484055008587    1.80461720165538
H          -0.32883743346070   -0.40206836227808    2.30256333899024
N           1.47994958249360   -0.61414342175395   -1.26630706766068
H           1.18140169447466   -1.47537123085953   -0.75735457558144
H           0.70005668629119   -0.34568311030110   -1.92252616627416
H           1.58581799577348    0.15200686664210   -0.51788495374284
H           2.35557801246089   -0.74972020269540   -1.75914149074831
