    26
        -50.46166190  Gyration_radius:  2.51070354807 Dipole_moment: 6.131
 S          -0.59913051257568    2.10696986047705   -0.46155135576150
O          -1.19105703948839    1.40946291065773    0.66015124298403
O          -0.22209689349433    1.18936143871685   -1.53266427281120
O           0.50013114241319    2.98130940692064   -0.10590660593118
O          -1.73985693120172    3.03592593444330   -1.05146925041463
H          -1.26534160293795    3.57811016380311   -1.67346667362674
H           1.66866807374241    1.85242294370504   -0.00847540879902
O           0.42569844891632   -1.80346400962316    1.59154083291266
H           0.94651938421637   -2.37960172885464    2.15154664714810
O           2.33121952905553    1.14715204540719    0.18434426323810
H           3.16947960464257    1.60517193208531    0.27191487581838
O          -1.39946201033073   -2.51942211128194   -1.81142692993298
H          -1.69911619769325   -3.41381238497599   -1.64373856515352
O          -2.06602880322214   -1.11901603528264    0.34000623047170
H          -1.90322596934633   -0.15722212413287    0.38031225000371
H          -1.82134394873447   -1.95485074130644   -1.11753289639632
H          -1.44091629903798   -1.49810229192464    0.97091634667219
O           0.72900115901190    0.64013164286796    2.34843751524186
H          -0.05479862309563    1.03892422709748    1.92177806665972
H           0.50674162338444   -0.88099774108568    1.98731367932006
H           1.46494147648983    0.86270022041864    1.74992975665889
N           0.75653769614297   -1.15897894522826   -1.03235521894674
H           0.08462030382915   -1.80154489249409   -1.51132211850745
H           0.73901956309899   -1.37814814181507   -0.01214557556691
H           1.69905696950908   -1.21455179555091   -1.40146593975184
H           0.38073984668898   -0.16792978303358   -1.19467088556249
