    26
        -50.46365343  Gyration_radius:  2.41765277862 Dipole_moment: 9.112
 S          -0.68477156848178    1.46796436946570    1.14660546865974
O          -1.66717435085872    1.87212687430386    2.09200344172029
O          -1.21434378607932    0.91548025277646   -0.09955512302549
O           0.30484788179678    0.51615867402842    1.72297693987516
O           0.17449759915615    2.71631704868093    0.71931313005233
H           0.77237680356659    2.39118321537414    0.02161252197557
H          -0.90107912285600   -0.48415733869530    2.48799197527076
O           0.20321580431846   -2.18465968583029   -1.30073812912438
H           0.21406005947575   -3.12368144635569   -1.48822898729551
O           1.78370801369368    1.73812422073580   -1.28431846103534
H           2.10033704879153    2.48378616141956   -1.79634142911492
O          -1.73764566114011   -0.95328986821900    2.64299621405680
H          -2.36666011442614   -0.24677239917684    2.81622638425568
O          -0.12279040997762    0.42743251575638   -2.43919410889337
H           1.07317959843133    1.29264655851295   -1.83771657757058
H          -0.02566080891983   -0.53183608328668   -2.36821806054949
H          -0.71191217421679    0.66964341162350   -1.69255572441515
O          -1.92739727868965   -1.61925797466792    0.02642190319945
H          -0.65031837238455   -2.01627146898685   -0.78295738185441
H          -1.93215927420805   -1.70219220642666    0.99963245973625
H          -1.86243192953664   -0.65070029829853   -0.10560805626632
N           1.86629934090583   -0.61704307466713    0.09267399265304
H           2.64370844096896   -1.06705136319448    0.56268046450155
H           1.30453323011360   -1.30224804024817   -0.46918370682586
H           1.18200420160258   -0.15376268660944    0.83341329050618
H           2.18157681895415    0.16206064198485   -0.49993244049217
