    26
        -50.46305556  Gyration_radius:  2.55515247275 Dipole_moment: 5.326
 S           0.28507243780432    0.47801143592714    1.03131501668533
O          -0.77476010837492    0.80908154764168    0.08502920273592
O           0.11787654605404    1.39560209457523    2.27091629900757
O           0.13327192198653   -0.89469070868396    1.52357055949845
O           1.60778879926390    0.70121275238319    0.46715764047280
O           0.23450965788919   -2.12964607975043   -2.34797429834559
H           0.68375137925807   -1.84281601978704   -3.14438597132582
O           2.00371648403609    3.21287099633144   -0.27561162454325
H           1.92486522798503    2.25133208129487   -0.09467445553074
H           2.79508001386434    3.50335290760938    0.18086085385429
O          -0.45690772813958    3.40185752054229    0.77925084168849
H           0.40746274620341    3.58249289433948    0.35241267587379
H          -0.86971900922026    2.71947056879166    0.22909965305129
H          -0.10270277237521    2.28438344463093    1.86696485803045
O          -1.96091661812913   -0.87915559598873   -1.53795772827972
H          -1.56743680815781   -0.09301750412588   -1.09682074409538
H          -1.20328936685634   -1.33067944518372   -1.98075393773361
H          -2.08955225412976   -1.64333424157600   -0.31388897588692
O           1.97490086242461   -1.78036702440445   -0.36424868451828
H           1.64527969711693   -2.16009510961393    0.45515710391116
H           0.89724423315918   -2.04228639026723   -1.62105560368088
H           1.99623635542328   -0.82076934755992   -0.17461168311506
N          -1.97821693786014   -2.10304452320928    0.69709505781775
H          -1.10593954800700   -1.60470060709255    1.10615003746545
H          -1.81004634105712   -3.10150690090211    0.62868546942507
H          -2.78756888015159   -1.91355873591431    1.27831841754458
