    26
        -50.46166233  Gyration_radius:  2.51001684127 Dipole_moment: 6.132
 S           0.13251574684290   -0.26857408031123    2.21829550631328
O          -0.32053445465806   -1.35968715827010    1.38216130606828
O          -0.19972985046268    1.03099710427862    1.64190708453712
O           1.53311076596281   -0.34011879651428    2.58224670849586
O          -0.69040360889607   -0.37996211006704    3.56816719003359
H          -0.25929307460831    0.25792824279250    4.12790568453486
H           2.16059008840954    0.26827409479439    1.20951648572330
O           0.15532282654824   -0.88566655058230   -2.27234419511352
H           0.55548069481995   -1.06706541070442   -3.12309508585508
O          -2.70511532395873    1.61912204954842   -1.28266916329204
H          -3.26124740868196    1.54107202866524   -2.05882219047630
O           2.53232246455384    0.50399478958094    0.32636994808669
H           3.46709220958847    0.65635866185768    0.47842940405865
O          -2.13812628956827   -0.86613364720289   -0.54569683027935
H          -2.66158610351423    0.71479659649563   -0.88504859587421
H          -1.54994478366961   -1.11179608010271   -1.27110239882296
H          -1.62028099034159   -1.04565377282011    0.26214461917925
O           1.57110149246502   -1.95643709507530   -0.40536614662329
H           2.12460300782088   -1.17882701113228   -0.20992440521431
H           0.90883828099416   -1.96539221217509    0.31344018229684
H           0.69248899163538   -1.40206889555819   -1.59501036406505
N          -0.06995831748429    1.46141135262308   -0.91181368359327
H          -1.04024996229660    1.77129858536058   -1.14790244004936
H          -0.07766330102129    1.25031146247392    0.13941030407698
H           0.12618984380066    0.58537385975698   -1.44395079346540
H           0.63447704569846    2.16644400219683   -1.09724813069635
