    26
        -50.46305572  Gyration_radius:  2.55472505236 Dipole_moment: 5.326
 S          -0.33297226637508    0.39203773550784    1.05348614421530
O           0.97472370006128    0.38795598100781    0.40673594655716
O          -0.18740531259645    1.12410354069731    2.41326335537348
O          -1.29628066455536    1.17672317449660    0.27515867875293
O          -0.81989515789716   -0.95606830431362    1.30492850229723
O          -0.46555751297543   -1.23676472343447   -2.88755734239875
H          -0.23919600650020   -2.16124635677694   -2.99850930866683
O           0.79993588987228   -2.36491825477310    2.85666765944736
H           0.26508275007155   -2.67063593053920    3.59114913714465
H           0.17683482268539   -1.94582874422497    2.22449057989387
O           1.40153977865973    0.51016452979419   -2.18019907651750
H           0.48533340798030    1.62675852576308   -2.06978365503395
H           1.44178680762607    0.34732142025113   -1.21094912090271
H           0.81482088152234   -0.19972066250986   -2.53503407698901
O           2.07607085813889   -0.00368064873312    2.84340293161086
H           0.68264511578215    0.77682624339087    2.76574260913328
H           1.80525812364267   -0.93330951752845    2.99895158817871
H           2.16028433880508    0.07423436585390    1.88132635339387
O          -2.24594568905678   -1.15556811286526   -0.91041437491258
H          -1.15958291905510   -1.21385288342240   -2.18535588212013
H          -1.74518175348348   -1.27864285759752   -0.07884743674795
H          -2.61923031127032   -0.27473414913566   -0.81574437496577
N          -0.30804141991750    2.35722152995402   -1.78179958753853
H          -0.74598180603977    1.91620727777174   -0.89283741539484
H          -1.00877369459220    2.44257082298697   -2.51088665004036
H           0.08972804941788    3.26284597843759   -1.55738514378802
