    26
        -50.46654166  Gyration_radius:  2.46916542419 Dipole_moment: 5.994
 S           0.35021988160012    0.22219615698838    1.06196719834435
O          -0.80644257894473   -0.63671501921847    1.35493911336413
O           1.26829799399188   -0.47025987687442    0.15482768978889
O          -0.05991632913861    1.50719117678884    0.53474649832297
O           1.05824947972470    0.41431418494928    2.42032208905685
O           0.17083520040306   -1.32586805074160   -2.09500062635140
H          -0.76281528204407   -2.07805272641188   -1.25561170430221
H           0.80355458951844   -1.08130907825998   -1.38530298524772
O           2.40169076037148    1.77686353645294   -0.67491891926848
H           2.08829909429415    0.86366890366329   -0.51695672545206
H           1.59594709238350    2.30490694781060   -0.66898024309144
O          -3.12722935633224   -0.19147248502841    0.11414972814671
H          -2.33221926061796   -0.21957916409544    0.68840315676589
H          -3.70181344701334    0.47751616275615    0.48876202401667
O          -1.29263287216970    0.82771039380531   -1.72215002877031
H          -0.81118996931265    1.21625309798689   -0.96365201634137
H          -0.34437205959518   -0.49145935381052   -2.23181026363965
H          -2.13244762046179    0.52854828651904   -1.34224536520208
O           3.13426705133979    1.85555540328081    1.84811961572200
H           1.83718399012835    1.01707261342703    2.26328799169206
H           3.92596618079788    1.31951601412815    1.92983381186694
H           2.97662876816100    1.97240965126226    0.87543220884541
N          -1.41984914682512   -2.42003453040201   -0.42836690498534
H          -2.38516949313565   -2.14299232058668   -0.60717716390406
H          -1.09073187258518   -1.83233081878792    0.39957419300081
H          -1.34431077453275   -3.41364913560814   -0.24219238234384
