    26
        -50.45059456  Gyration_radius:  2.46317369044 Dipole_moment: 4.139
 S           1.59841292168519    0.92218033103542    0.77361892379394
O           0.27140340919102    1.44596243054919    0.51184412984422
O           1.43598294954059   -0.44365235554709    1.49632549873504
O           2.23386165918363    0.53228034515370   -0.57141148587851
O           2.45329544205336    1.75636003861546    1.53156965667295
O          -1.28257915051984   -1.08538142666772   -1.50509239866594
H          -2.02465944189488   -1.48994058321507   -1.95518829943129
O          -0.24293385551646    3.05759053851622   -1.56295866864627
H          -0.18220594416042    2.60969537606153   -0.69768546902850
H           0.32799904746048    3.82575238166154   -1.51318291716592
O          -2.04480703365140    0.04831482019515    0.66169245576076
H          -1.33614455166701    0.71330243461166    0.69422648144672
H          -1.65678757275578   -0.63476516799101   -0.67796903436937
H          -1.84695724211946   -0.56861519784622    1.40441699006061
O           0.56575924411244    0.66845289645644   -2.43333124354685
H          -0.17276949352367    0.07073214541359   -2.19857992203037
H           0.21524766052804    1.58079643114982   -2.33160632254885
H           1.55121497419695    0.59775504146171   -1.36121670701096
O           0.96538036110701   -2.05865946061906   -0.44322846993597
H           0.10513062797456   -1.81437588967934   -0.85183229105535
H           1.64628356850275   -1.83216025166804   -1.08291731254647
H           1.23623347590797   -1.12437190280864    0.78251817274826
N          -1.11302627635900   -1.56758618280633    2.65013760125675
H          -0.16850077195944   -1.19566200307121    2.63826543777239
H          -1.05269897358237   -2.55919258388045    2.45582161625825
H          -1.48213505373040   -1.45481222507817    3.58576358750784
