    26
        -50.44722215  Gyration_radius:  2.48008877316 Dipole_moment: 5.452
 S           1.56680808759910    1.23207314125274    0.26949963145180
O           2.11121087853340    0.87618764758160   -1.11261603548153
O           0.14123874752883    1.48569298720772    0.15746081594571
O           1.74097217283968   -0.07562696846558    1.10145637054304
O           2.32530712492131    2.25613418230828    0.88441777818947
O          -1.34143971431927   -1.49290095858750   -1.21444016219525
H          -2.13858604331129   -1.84256384020677   -1.61388134112676
O          -0.93390619739435    2.61650459055155   -2.01992882899345
H          -0.66650706309070    2.33526571278485   -1.12420464926985
H          -0.49095036967950    3.44969134176226   -2.18726357708826
O          -1.86774996449384   -0.14454676360705    0.91759702324687
H          -1.47450270518337   -0.52982491614417    1.72917252395145
H          -1.28166298680930    0.60032644741248    0.69596913892600
H          -1.62725288110863   -0.98035750913978   -0.39586792919771
O           0.20678691111027    0.26901626157932   -2.63243402578882
H           1.35322986575202    0.58124018952043   -1.76166574475536
H          -0.36546366891333   -0.38612563811410   -2.18774904269219
H          -0.29421247872689    1.11276194610700   -2.62395552577875
O           1.05537389259743   -2.17013697189733   -0.24169317531467
H           0.91757739040388   -2.90135681911082    0.36355917063315
H           0.19965560961716   -2.01047489634228   -0.69016655885756
H           1.50951663090641   -0.86502568259185    0.53175974481248
N          -0.36059299914189   -0.87811169746913    3.09815399734153
H          -0.60846681968826   -0.20725420114182    3.81533412576887
H           0.51339731051440   -0.56675706272431    2.68327556894126
H          -0.18978072046031   -1.76383054252499    3.55821070679168
