    26
        -50.44722215  Gyration_radius:  2.48009004238 Dipole_moment: 5.452
 S           1.08858540844379    0.61510065881797    1.57546661100143
O           1.47074392928192    0.16436719771760    0.24884606092013
O           2.10224384062520    0.55063705884348    2.56060135203473
O           0.49539647582462    2.01831452021338    1.46415125327599
O          -0.10603456439037   -0.27322705433163    2.04057431760312
O          -1.49622105217022    0.28026436829497   -1.78489415586508
H          -1.81220986000760    0.24785151147925   -2.68841671818914
O           2.40289868296693    1.85158670422951   -1.61127212630708
H           2.21878175430021    1.11527073261544   -0.99737824476478
H           3.15565363463148    2.32365964049752   -1.25221882385945
O          -2.28024013073375    0.29520908030049    0.77140994577654
H          -2.09490061542179    0.36673306874160   -0.18745330316037
H          -2.90510779537123   -0.42452531544563    0.87881658450375
H          -0.93680144512624    0.00896954831687    1.55946596600563
O          -0.11091039393204    2.48437192412765   -0.92760836082802
H          -0.63749189017255    1.74007155737399   -1.27854361136314
H           0.19562072697613    2.23444466515837    0.49141202836716
H           0.77350142624935    2.40834137306037   -1.34595617124660
O           0.17416702725449   -1.62135496338044   -1.30086515927693
H           0.81781019462721   -1.05586183129333   -0.83892114759538
H          -0.13682075993783   -2.24732632218967   -0.61298139778457
H          -0.85127958856946   -0.48550451198210   -1.67490019839534
N          -0.41070507177076   -3.06581364103044    0.96538978951422
H          -1.23923978503011   -3.55300567332693    1.28398549337304
H          -0.25008574909013   -2.27966552067871    1.58916760660633
H           0.37264564053913   -3.69890877613026    1.07212239965378
