    26
        -50.44722210  Gyration_radius:  2.48008008841 Dipole_moment: 5.452
 S           1.76845934857315   -0.38777275464670    0.87582544153982
O           1.06519525300561   -1.70938344615576    0.43833627502653
O           3.16164774376885   -0.62549471560324    0.94425408622489
O           1.35189883955537    0.64999755055918   -0.05081906358559
O           1.17777942183099   -0.08253291963238    2.25103450661339
O          -2.24722110713455    0.67186958414596   -0.03851129466437
H          -3.01509084786852    1.17865077855223   -0.30455026863326
O           1.03322809229720    3.19638064218640    0.71739183673722
H           1.24535242187223    2.35294370718018    0.27405749368666
H           1.84472465229136    3.50050607057154    1.12654925036678
O          -0.67900825961928    1.59103886529849    2.01280114339342
H          -0.18046444660395    2.34660550154621    1.63391319889573
H          -1.29176871217580    1.29633295586116    1.31130577032912
H           0.37793648967844    0.58019228710208    2.18897746703627
O          -0.54307838240314    0.46299283779409   -1.96016066517578
H           0.23353738718642    0.66711580039866   -1.41002628502026
H          -0.39731594008335   -0.46165341402317   -2.25260849596837
H          -1.63134344066757    0.63776847983470   -0.83475252879246
O          -1.46046555075621   -1.67690193729117    0.96853852304454
H           0.10057434718292   -1.67524894532054    0.70215140514455
H          -1.84754242378732   -0.82386539477567    0.68315130419065
H          -1.89823468078604   -2.36252297991283    0.46022926125949
N           0.28445756493471   -2.11602970194818   -2.43773249440003
H           1.00934962092133   -2.02449609299500   -3.13915307131875
H          -0.20892217251788   -2.98058173710859   -2.62332543963515
H           0.74631480130301   -2.20591102161831   -1.53687733629420
