    26
        -50.44722211  Gyration_radius:  2.48007745277 Dipole_moment: 5.452
 S           1.95130397156916    0.05338437892885   -0.48450414003365
O           1.13982135830231    0.90456970691562    0.36762616165455
O           1.47608797771579   -1.41510795184065   -0.26018335052669
O           1.60262238877560    0.34500183409825   -1.94280733064632
O           3.34676236309897    0.11013551844337   -0.25728009153778
O          -2.29849819421049    0.19576054700737   -0.42574686457136
H          -3.19550854181494    0.51229422916019   -0.31427795006635
O           0.44202981294509    3.38769423453439   -0.35542582441040
H           1.23461100924256    3.88333630346115   -0.56658226175235
H           0.73633722286980    2.57122192690119    0.09145581923879
O          -0.83393011620525   -1.85279831699624   -1.32470561904047
H          -1.44622129679384   -1.12280618156937   -1.09858198105004
H           0.60164655535621   -1.55595157346104   -0.72578003962778
H          -1.20753475714464   -2.65266047840221   -0.94959097742051
O          -0.58060064033669    1.58074265533389   -2.05134181466203
H          -0.34538734723277    2.38789751398818   -1.54521120717026
H           0.68303141565158    0.82386827325276   -2.03132610364277
H          -1.24529347629892    1.11074508301741   -1.51123852188092
O          -1.01927628522774    0.17937830253134    1.81117653537127
H          -0.74002247336717   -0.71727107794852    2.09363171469531
H          -0.20947334501208    0.58177927607873    1.45098798615319
H          -1.86606610598890    0.22157513062741    0.48353575611851
N           0.23057192356556   -2.20822043636886    2.36031070157893
H           0.87513592192243   -2.12760459298350    1.57866565752374
H          -0.09159518108856   -3.16729986109689    2.40174707319075
H           0.75944584970858   -2.02966443361318    3.20544667251174
