    26
        -50.45059451  Gyration_radius:  2.46319075234 Dipole_moment: 4.137
 S           1.66853296966138    0.68647460193352    0.86494629883068
O           1.36020524787762    0.52949835252582   -0.54363764575411
O           1.25608736244749   -0.62414536809829    1.59045845465891
O           3.01559261145034    0.98999574661529    1.17230581642269
O           0.70419231949851    1.72987130639133    1.45341069585918
O          -2.17293781442910   -0.10741362118598   -0.59657686774835
H          -2.99618442107048   -0.34936103302566   -1.02162636044887
O           0.75224617332216    2.61192389668112   -2.11224746532038
H           1.09411688362423    1.79033589708177   -1.71085760836266
H           1.46668315412264    3.24985252881455   -2.07844572264601
O          -1.08072200362990    2.34157931728927   -0.19216719983645
H          -0.55583968442739    2.58876330394240   -0.98524461444819
H          -1.54709759721639    1.51403298960520   -0.42766686106497
H          -0.03951330955454    2.00505683645754    0.77134334053977
O          -0.21088119888800   -1.39800971349863   -1.61933620297537
H          -0.01348995371329   -2.15835287134699   -1.02410225299629
H          -1.44134864746988   -0.62962691356547   -1.06485157925034
H           0.47380977506031   -0.73808382744087   -1.41644427332437
O          -1.27387305282099   -0.32427393701256    1.90793061941678
H          -1.70028073306107   -0.30751648429591    1.02217111372282
H           0.26147359493180   -0.57186289939958    1.73481397446700
H          -1.34311209621515    0.56681960598384    2.26189465309193
N           0.47855604419541   -3.22686262239445    0.28150326622586
H           1.02787739343205   -2.58007663812644    0.83874257667868
H           1.07593217202507   -4.00129402167701    0.02120783568145
H          -0.26002519915319   -3.58732444225495    0.87247601858471
