    26
        -50.44722210  Gyration_radius:  2.48007974786 Dipole_moment: 5.452
 S           1.14198679748656    0.06435910696597    1.65422735262327
O           2.40495995074070    0.18014435978125    0.80290335982097
O           0.63010040075303   -1.38509959625957    1.39030191459290
O           1.42607188089099    0.19257741379018    3.03445090005005
O           0.14165083075579    0.97748718648842    1.13014712921556
O          -0.39321726205666    0.07020932776707   -2.31155040781165
H          -0.78315167992424    0.36693014295897   -3.13443394282532
O           0.79998610217835    3.34012262753780    0.05292532106814
H           1.32132642552232    3.83512378019893    0.68664328213820
H           0.41142792454204    2.58875035143201    0.54013801384851
O          -2.02905866355653    0.34540313701717   -0.33955710925039
H          -1.08584688660391    0.21159813126070   -1.59408856102420
H          -2.27689295156443   -0.50449266216437    0.08234925323225
H          -1.37166433152961    0.73209358144238    0.26522172856334
O           1.85306693812102    1.32262021382782   -1.36398924792688
H           2.20852611702458    0.61526145051062   -0.12170305315673
H           1.07286767947646    0.89359084594637   -1.76603548886883
H           1.53880375525085    2.18842164760634   -1.02543114881014
O           0.77012820403106   -2.01525141452515   -1.10857499555677
H           0.41157912686088   -1.28553379590890   -1.65437914374633
H           0.74377019715400   -1.60600218990212    0.42100828390579
H           0.21573750524890   -2.78068299758790   -1.27242803758702
N          -2.32222711029336   -1.92314398241583    1.18750229122029
H          -1.36000767438042   -1.90846814858542    1.51437203327081
H          -2.56279414549447   -2.88187677787134    0.96775009365381
H          -2.90712913063440   -1.63414174931193    1.96223016936013
