    26
        -50.45271283  Gyration_radius:  2.562115178 Dipole_moment: 2.805
 S           1.25100632306112   -0.81647590263790   -0.47425273229905
O           0.86151098100584    0.64025175336921   -0.85482909181750
O           2.38260148937263   -0.66249851364577    0.51033303474896
O           0.09816801593962   -1.41676818856724    0.17175919433502
O           1.71140371248670   -1.49651561354121   -1.64262681673697
O          -2.39175659836256   -0.11805276006114   -2.61065574074434
H          -2.91489106796270   -0.91630874584468   -2.70041192358783
O          -0.17297267230655   -1.64394033580734    2.81269107134131
H          -0.16191324194224   -1.66969465983328    1.83472678141174
H           0.17450077892374   -2.48663931203064    3.10927062241583
O           1.50808183869700    0.40703559590228    2.55137192428961
H           0.94857606750811    1.18373042610123    2.25048812878533
H           0.87682969868990   -0.28086478702579    2.86177792361905
H           2.04751254242800   -0.16890065214957    1.42438017097106
O           0.02966534502351   -0.75808932587074   -3.56890945256834
H          -1.52060647546033   -0.32052889951177   -3.01792195884585
H           0.52261836695795   -0.06668084083958   -4.01457798005877
H           0.64417884677485   -1.13986939060310   -2.91089257611905
O          -1.60127326541325    0.60316064091415   -0.19598584575893
H          -1.39481417180741   -0.27921499492013    0.15128249297295
H          -0.11591252865545    0.76093448992316   -0.62526820283912
H          -2.03204833503285    0.44686286920342   -1.07203969299092
N          -0.03252946289126    2.36771698443111    1.63129013676830
H           0.48159188933711    2.82630659869347    0.88933820869215
H          -0.35381248643166    3.07572814158020    2.27911670095064
H          -0.84571559982962    1.92931540278797    1.21054562295609
