    26
        -50.45271269  Gyration_radius:  2.56225450141 Dipole_moment: 2.802
 S           0.82219156333840   -0.11614705422710    1.32920732673530
O           1.26551166783431    0.64310307593909    0.17428634396191
O           1.81265329715164   -0.96491127331467    1.91070386169394
O           0.25673940379859    0.80745675328205    2.37840141918147
O          -0.38712495932882   -0.98265732725708    0.87648299865501
O           1.17366472136776   -2.51895870415707   -2.19772243122441
H           1.99401113578089   -2.35683597517759   -2.66642074443237
O           0.61775384007217    3.19058967497913   -0.26022438599758
H           0.96750863843135    2.28028468874041   -0.18096083540885
H           1.28194499064940    3.76925592410098    0.11770091771232
O          -1.35870397830514    2.32699676064740    1.30375527908609
H          -0.76460465343130    2.82372707985960    0.69675821900295
H          -1.94200489614250    1.75740532240608    0.71875137088270
H          -0.48544486004761    1.48552447405043    1.95238138950598
O          -0.37142004764396   -0.45695402249487   -1.61827567919891
H           0.10182748609043   -1.24696028618970   -1.97804010120658
H          -0.49715236988137   -0.84972422724864   -0.11998132742877
H           0.32525284875010    0.17589107235054   -1.38170840614674
O           1.90909071950843   -3.09353138988008    0.31630080647667
H           1.99333131936584   -2.31984785485520    0.90855618012202
H           1.37837008280775   -3.73185468302308    0.79627825782484
H           1.43238775601404   -2.79333837528976   -1.29026699676402
N          -2.76626474156521    0.73224160856164   -0.28961372353234
H          -2.14753343025982    0.45028458880340   -1.04333910791952
H          -3.62172059808035    1.08710532211534   -0.69761180603104
H          -2.99026493618583   -0.09814515289759    0.24460119436408
