    26
        -50.45271270  Gyration_radius:  2.56215986722 Dipole_moment: 2.803
 S           0.76108688004875    0.47055342179034    1.28648310125161
O          -0.21328335747765    0.99542108195343    2.31050415834960
O           2.06525509695408    0.37379982044068    1.86030382707412
O           0.24611398408328   -0.95800277520424    0.95130307206158
O           0.68316959736977    1.25455894371374    0.06737495446258
O           2.36676084196133   -1.58246780134375   -2.11020201095968
H           2.94677389639363   -1.02101551720709   -2.62716379702288
O          -1.29485912657451    2.95494730694592   -0.47507904571622
H          -0.49141974637541    2.40778037220405   -0.36357784911914
H          -1.06799237835346    3.83399420270027   -0.16743040935357
O          -2.41820831904585    1.25357534908869    1.24020357246251
H          -2.21626487462134    1.94983630496185    0.57496293573098
H          -2.58508565483154    0.41151843658420    0.72050977994611
H          -1.21410574624805    1.10260858057411    1.88769855278455
O          -0.06685534197884   -0.71189555878788   -1.56697388278778
H           0.76572905476452   -1.12325859393931   -1.90625129920480
H           0.06885334536452   -0.98895346342489   -0.04382265508576
H           0.15281402823059    0.21937826800775   -1.40459368494145
O           3.32185588683054   -1.45641263960948    0.39243387688814
H           3.24097744094600   -2.24294740129905    0.93512815999360
H           2.74461654083791   -1.59632265401364   -1.20317506455446
H           2.96488208650971   -0.72347980695093    0.93264747298113
N          -2.69983732500369   -0.97303706465833   -0.18324915185764
H          -3.61113476283245   -1.19112000538129   -0.56562923504091
H          -2.41171089657336   -1.74235026907790    0.40860539649824
H          -2.03813115037398   -0.91670854805255   -0.95101078487077
