    26
        -50.45271249  Gyration_radius:  2.56297245676 Dipole_moment: 2.799
 S          -0.78996746480915   -1.34195220481943   -0.17507301962872
O           0.74953596782603   -1.15073540602821   -0.06528343387673
O          -1.03507773365279   -1.62164343899536   -1.63624914997360
O          -1.17667663404827   -2.47169536477351    0.60835285749147
O          -1.40950674895994   -0.08693868087942    0.20950669407649
O           0.86480982406118    0.28621820908199    3.42436855078038
H           0.18856269008075    0.58642422745488    4.03386139487620
O          -2.31129825592873    1.71656832571714   -1.53226961781911
H          -3.23620713338322    1.55529971717877   -1.72558862372078
H          -2.07207884167578    1.11047870292886   -0.80247218818255
O           0.81160639861885    1.19011790638286    0.94335976401447
H           0.91246626447576   -0.23032249482884    0.32063898459177
H          -0.14922034229307    1.16768566207330    0.80864534667614
H           0.94792008937061    0.98333668630956    1.90056236881716
O           0.21881859162554   -2.25510640805729    2.86366295313511
H          -0.38546091593172   -2.36912620930106    2.10318835766890
H           0.93854292832931   -2.87218156760653    2.71912724580783
H           0.67574609178549   -0.66404428374078    3.25994366692340
O          -0.46635869647994    0.39715964658900   -2.93040501641157
H          -0.77244098307412   -0.76082717655017   -2.25410733522095
H          -1.13826922543499    1.02863991070806   -2.58705883357801
H           0.41961033858499    0.71833826500616   -2.58580870083801
N           1.82760611436689    1.21210421073255   -1.86370771539936
H           2.41211992468060    0.39292271092861   -1.75242728161288
H           1.61256197214984    1.55936804291849   -0.93435094233445
H           2.36265579950921    1.91991101150331   -2.35041632588052
