    26
        -50.45271286  Gyration_radius:  2.56188792855 Dipole_moment: 2.804
 S           1.56214064437593    0.09609479018834    0.08063195457570
O           0.66577207981459    1.01379241619341    0.75971557940488
O           2.11358654058728    0.73137094169206   -1.17073370670577
O           2.63108286157364   -0.40864484035352    0.88193709876075
O           0.70368784766864   -1.09576567476839   -0.43024679095533
O          -1.08877981161347   -1.88415687447165    2.79624358498165
H          -1.13227597589423   -1.43807604046974    3.64361411290562
O          -0.31180672983103    3.22710475808861   -0.35563266517653
H           0.02572307867554    2.47868258673381    0.17654231795023
H           0.26151095638103    3.97215906094843   -0.16850275127686
O          -1.53998026940951   -0.47427346509862    0.60906184225413
H          -0.23757448154004   -0.95844454102888   -0.08694142830836
H          -1.54367220977043   -1.04663675294497    1.41522974421887
H          -1.08230515513779    0.33992872655730    0.87258185316031
O           0.24288771455787    1.68817927997357   -2.45882647637430
H           1.31613284581131    1.14870403680643   -1.78848561543741
H          -0.47563652680267    0.98816950723295   -2.48311205725705
H          -0.07152091618642    2.38113503149313   -1.83511006519686
O           1.52282894315125   -2.31780666409303    2.36865786812136
H          -0.14163656327492   -2.10666649325287    2.65800957094995
H           1.76431371124666   -3.11333457141990    1.89061809081986
H           1.99326375373266   -1.58640798850248    1.92128557384676
N          -1.62513353074389   -0.19998681517230   -2.36281759693314
H          -1.96648889255737   -0.22720870818317   -1.40719792186578
H          -1.16399126832364   -1.08284850634470   -2.54452598082069
H          -2.42212866642537   -0.12506320976204   -2.98199612577171
