    26
        -50.45271259  Gyration_radius:  2.56260354908 Dipole_moment: 2.800
 S          -0.68373987094353    1.16239127197067    0.79872457299921
O          -0.31446410107776    1.13269357831120   -0.71173386682120
O          -0.34587332038918    2.44156981005229    1.33643991709141
O          -2.17907227624113    0.97119826590342    0.82839264808534
O          -0.01833254266332    0.03635784102322    1.42801841162521
O           3.42868619430827    0.82022052922515   -0.34141154558068
H           4.00288035900808    0.66594433194222    0.41055555533818
O          -1.22372258760139   -2.27140044501899    1.99417939113063
H          -0.69131350499353   -1.45733056699164    1.88928451783814
H          -1.58032719707563   -2.24852013327999    2.88365167539482
O           2.03120868766052    3.02017193659251    0.28951868412834
H           1.19925036368316    2.85418241711754    0.77611291289323
H           2.95590720711251    1.66034658633014   -0.15053256783538
H           1.80055018181234    3.61697670389127   -0.42489656413642
O           1.36342483161033   -0.78712170311066   -0.69710601477615
H           0.35371635028171    0.38533731866358   -0.84439910701746
H           2.21971526481545   -0.29320761012375   -0.67913351551377
H           1.10022106563485   -0.88124299016169    0.23223315957101
O          -2.69911619351690   -1.29213761607224    0.00313545426750
H          -2.15715572983130   -1.42489440529146   -0.83078978413536
H          -2.27120017214880   -1.84199016358595    0.69786967268385
H          -2.46026930962896   -0.01199354121639    0.44662896305442
N          -1.13666285505670   -1.56754152469495   -2.12932951362307
H          -0.18329460574087   -1.63736844314634   -1.78764061168734
H          -1.20486616536485   -0.70893325177150   -2.66153688878224
H          -1.30615008363255   -2.34370820653119   -2.75623555621230
