    26
        -50.45271276  Gyration_radius:  2.56224196822 Dipole_moment: 2.803
 S           1.49536103420658   -0.00323602558015   -0.46833672166378
O           2.29988567053338   -0.58681322020321   -1.49386718492944
O           0.51044467016201    0.95689921490187   -0.93197119754809
O           0.72678526305721   -1.13066443388655    0.27761071317326
O           2.37701032094909    0.61772751215088    0.58556761346057
O          -1.85797408036245   -1.85983302469149   -2.37633209602085
H          -2.08878751682455   -1.42537906613399   -3.19913383073649
O          -0.03098829450748    3.24580585840137    0.32005572522641
H           0.51862943437263    3.95009198880244   -0.02742341833171
H           0.11986233442639    2.46890715143434   -0.25520501218799
O          -1.66698348781641   -0.38891124934238   -0.19103956334431
H          -1.90443122035921   -0.97323096695347   -0.95240136455927
H          -0.26128727147262   -0.94130937140480    0.17462730233366
H          -1.24459759879447    0.39062075472261   -0.58575654598399
O           0.74952107983951   -2.44425587437729   -2.60285656084553
H          -0.92014540606380   -2.13712724032843   -2.47270511342783
H           1.35706876071971   -1.73715920311243   -2.30752440567039
H           1.05932063172566   -3.24707735876363   -2.17957097400782
O           0.94439974277705    1.71042310352428    2.26717231119239
H           1.78395741241167    1.09405924799164    1.36860932658688
H           0.52361916157025    2.41126033250664    1.71962965101079
H           0.21646051118478    1.05717890671592    2.49137969829998
N          -0.99168193447054   -0.05862620719762    2.69855213599625
H          -1.60366217909010    0.07716850869366    3.49303754978671
H          -0.55042613715462   -0.96536100327839    2.78921054813525
H          -1.56136091095050   -0.08115835452179    1.85867143400052
