    26
        -50.46224025  Gyration_radius:  2.54855552421 Dipole_moment: 4.825
 S           0.64162963728475    0.68536239730191    0.73591133130336
O          -0.71158401113632    0.43897763816515    0.25025373437381
O           0.53176599447048    1.36470920230141    2.12998701602774
O           1.32485821623107   -0.59036080747046    1.01278097309063
O           1.39806949835029    1.54261314795949   -0.15310428248852
O          -0.34631305642006   -2.16950199561452   -2.45508210033471
H          -0.58350573415332   -1.82563817818504   -3.31747307244914
O          -0.73413623313575    2.89626249578863   -0.91779145276097
H          -1.27700747649109    2.12011455224254   -0.72824405001054
H           0.17432029210522    2.53969218943803   -0.86289788631417
O          -1.90606804381865   -1.81048865197459   -0.33508271180989
H          -1.00360186893612   -2.40612384261917    0.62312947173059
H          -1.63988425879245   -0.88075976777644   -0.14360409562526
H          -1.47173591370945   -2.01195795563138   -1.19730279281339
O           1.76893564742646   -0.74914450603582   -1.61401987240649
H           1.77979167728162    0.21082263004960   -1.70446983196622
H           1.80222817606199   -0.87124286137967   -0.65042974993736
H           0.46541375381417   -1.68427261332710   -2.18278616702744
O          -0.33621485631670    3.74840944414426    1.55065801836280
H           0.42806698186546    4.32647290392007    1.49755773222167
H          -0.61816555279338    3.58109813230569    0.61545246339615
H           0.16542584350887    2.28130148383459    1.99142075373612
N          -0.16782803880347   -2.66305754738251    1.31984328532754
H           0.33146188708407   -3.48758476473453    1.00171287050077
H          -0.49792037861910   -2.78640719666665    2.27097148822460
H           0.48199778765044   -1.79929552866017    1.26260892764822
