    26
        -50.45059451  Gyration_radius:  2.46318819287 Dipole_moment: 4.137
 S           1.25468833348989    1.49298425865762    0.44755551517851
O           1.35783599551640    1.60783242589615   -1.08250634358022
O          -0.14408899747372    1.33140416411946    0.79559653270947
O           1.97760719203001    0.15137574759013    0.75035259966186
O           1.93454909368293    2.55022276681651    1.09655400618574
O          -1.24204367965848   -1.40315264239085   -1.25600330089242
H          -1.87241676607693   -2.06622188626383   -1.53868026853607
O          -2.08818910876952    2.70221333163200   -0.43243468073113
H          -1.49240060902247    2.25037245638982    0.19515647939868
H          -1.91259456547846    3.64057814437024   -0.34787582903859
O          -1.39943171412257   -1.02185443470081    1.27206688426293
H          -1.37678865962125   -1.28261426472215   -0.25874262642893
H          -0.67646718442056   -1.54063175890698    1.69583621025490
H          -1.07763685312818   -0.10431265957014    1.26616954000319
O           1.42378584725145   -1.26974708856748   -1.31486453322284
H           1.78696261930256   -0.45944179850050   -0.02642713735025
H           0.45419106194576   -1.43182232217903   -1.33193662307171
H           1.61453751546640   -0.67383591037222   -2.04468390183574
O          -0.83947747095576    1.11557978029820   -2.17682303449957
H          -1.09938908011192    0.21320567254248   -1.90120617364443
H          -1.44779824002585    1.72598484372977   -1.70467745225460
H           0.44294008804107    1.41782639930322   -1.55250501801499
N           0.84824301575336   -2.18423203714862    2.28695050976597
H           1.46064661586298   -1.40201823899207    2.07793403060741
H           1.21361382661511   -2.99514247006673    1.80364117445461
H           0.89912173390059   -2.36455247895772    3.28155346062207
