    26
        -50.46224026  Gyration_radius:  2.54856966788 Dipole_moment: 4.824
 S          -0.71630622200722    0.91191536578489    0.28017809870433
O          -0.35989635651400   -0.00795608865471   -0.79431472161105
O          -1.67378570117216    0.33703501041358    1.20221181263949
O           0.49767744493638    1.40370309391653    0.95494200213027
O          -1.33045135519031    2.18547926773410   -0.36630156000267
O           2.10205873649674   -2.42924975353487    0.73198642017964
H           1.75128679616655   -3.32020936048292    0.76835608171371
O          -2.84515570338418   -1.10840911264792   -0.66902558945386
H          -2.01418708028627   -1.11784322320573   -1.16140031749257
H          -2.57522011417008   -0.74633109146459    0.19788464350166
O           1.97058650813130   -0.96913672688896   -1.48331726864449
H           2.09844369701718   -1.63145117556791   -0.76389021971231
H           1.02725850384436   -0.69694260426346   -1.39412588903054
H           2.51195872315401    0.23879920920116   -0.90418032456890
O           0.51770387464518   -0.91363896607260    2.27860897397600
H           0.67058370451502    0.00309702705280    1.99445359469787
H          -0.44156273240268   -0.99371866766799    2.22230311734395
H           1.55177649066190   -1.89508942047653    1.34870885238772
O          -3.63934463624739    1.34838543124917   -1.22613023098435
H          -3.48068178807841    0.37288576001340   -1.15349417759651
H          -4.28995503257043    1.56175190570575   -0.55366374261221
H          -2.21193809742371    1.93142719428890   -0.75617694162205
N           2.71316472116520    1.17863690051116   -0.33313346405072
H           2.90211006225451    1.95963254768529   -0.95214029035820
H           3.47404557028037    1.04885309267200    0.32606795006516
H           1.78982999618445    1.34837438470379    0.20559321038510
