    26
        -50.46224014  Gyration_radius:  2.54860369505 Dipole_moment: 4.825
 S          -0.37684365302350   -0.50897729332445    1.01189558666918
O           0.78335985952933   -0.47786475857767    1.87810616489380
O          -0.02476645740599   -0.78392032071872   -0.37676676704935
O          -1.34202268850333   -1.63000969275328    1.49032119147950
O          -1.18510082724253    0.71981625455849    1.09988116786027
O           1.28361447404295    2.47850853070960   -1.75184976179282
H           2.21288276331474    2.42671231302104   -1.97961217437520
O           2.08562310639385   -2.28302420097418    0.46104210390884
H           1.58923016561281   -2.00637134219513   -0.32000607841799
H           1.86979264573320   -1.58408748214110    1.10943897962739
O           1.11242086769244    2.06210339149458    0.89335212456914
H           1.23763431918926    2.38455584043716   -0.77333458981348
H           0.19018054796677    1.80536398990458    1.06095348180830
H           1.60844728320125    1.34794090590004    1.31007758701755
O           0.21611231701715   -3.70634436591174    1.66769959370631
H           0.50077136122274   -3.77383916481932    2.58174580453929
H          -0.81843460334832   -2.47642120147194    1.54635536424422
H           0.99323153819344   -3.35273833077126    1.16456711123835
O          -0.45301949939453    0.62695603852256   -2.53445182965347
H          -0.22792035987971   -0.04757664327676   -1.85162202041400
H          -1.58503356805533    1.16778150067841   -1.81777503348690
H           0.23243431737975    1.32605398241062   -2.41624914324039
N          -2.33423790663089    1.51017624653677   -1.06188724708729
H          -1.91940473555843    1.16720171689661   -0.12282003290212
H          -3.24236874461233    1.08538998995118   -1.21569996122239
H          -2.40658252263926    2.52261409582588   -1.05336164221943
