    26
        -50.45059453  Gyration_radius:  2.46321138579 Dipole_moment: 4.140
 S           0.50010288857225    1.52892766033336    1.18968603172763
O           0.69787762300026    1.37165992628034   -0.23850735565509
O          -1.01288303834002    1.55935489347998    1.46359620527750
O           0.95729559050282    0.21434838351060    1.88035754499215
O           1.16006233008755    2.62806959015370    1.78748830575647
O          -1.30613421217217   -1.48303478157834   -1.08733839355407
H          -1.62004967805966   -2.16687301906935   -1.67964167517424
O          -0.81395439181320    2.65271660169481   -2.03821130614153
H          -0.09946607108738    2.24227222065974   -1.51463294097851
H          -0.76335697457287    3.59592537657239   -1.87621271731303
O          -2.31594619892436    0.98504856999034   -0.59524089234747
H          -1.57068338659773    1.33447252660200    0.60765805599262
H          -1.94973896802119    1.61410092993182   -1.25537907819291
H          -2.02056171756868    0.09657441939132   -0.88020572192732
O           1.16338346409156   -0.96491439372684   -1.52852379252677
H           1.69346667052589   -1.45181650746056   -0.85520330665233
H          -0.33844726333904   -1.30960160265830   -1.33338427268698
H           1.14176357610608   -0.04571089996263   -1.21226615950701
O          -1.07363256723972   -1.32522194031590    1.56780898551426
H          -1.19003378855497   -1.49808733196143    0.60695837252099
H           0.19999735227665   -0.44085076515691    1.78070823541483
H          -1.80941411711150   -0.76833559061743    1.83723848833057
N           2.48578269010371   -2.04654602321845    0.59608742859750
H           2.30372748723005   -1.27128891269248    1.22576206641528
H           3.48830622871690   -2.17175630395863    0.53518696752854
H           2.09253647219030   -2.87943303622380    1.01621091458706
