    26
        -50.46224024  Gyration_radius:  2.54857675399 Dipole_moment: 4.830
 S           0.30109525214267    1.15288507050515   -0.06263172568250
O           1.61987388756843    1.20371397978257    0.53380853938287
O           0.10196822581861   -0.04813915805641   -0.86623194292894
O          -0.77790568502326    1.28659154916879    0.93179632482016
O           0.11283251887033    2.38506835690165   -0.99179063958576
O          -0.57733475099755   -2.81248624183154    1.61481362062230
H           0.11658821318092   -3.47327325966111    1.61509009530947
O           2.75267474385126   -0.07147504898220   -1.47962703507174
H           2.59563176750152    0.34527713784699   -0.60951997806509
H           1.90775491435454   -0.50247110449522   -1.66227225775158
O           0.55207997032270   -0.50676664319645    2.39372965180071
H          -0.16699451225962   -1.98690590854520    1.95909686931724
H           1.39901059889197   -0.22934267754614    2.02561032214218
H          -0.04898902855284    0.19581138180738    2.09429308501817
O          -1.68002499990939   -1.94671600994891   -0.64163777461981
H          -1.31410031483664   -2.42913296174957    0.13677559476612
H          -2.51146067161023   -0.93692858229142   -0.02762375291724
H          -0.95921924373781   -1.32568092126013   -0.89969395821925
O           2.23795005084496    2.31363835222546   -2.49158962663542
H           2.53811484759755    1.39278295367983   -2.28201166566011
H           0.87995890946919    2.40274070680312   -1.62804537087374
H           2.88677153253885    2.89991180238935   -2.09615685248140
N          -2.93633277380675   -0.04139685160528    0.48933971690883
H          -3.60044697457337    0.45032350862669   -0.09886347465587
H          -2.06893127995551    0.58082019978111    0.66852349204574
H          -3.36056518770384   -0.29884963036072    1.37481876303421
