    26
        -50.46224028  Gyration_radius:  2.54839449874 Dipole_moment: 4.828
 S           0.80909092142951    0.42427546243249    0.76664605396681
O           2.07843437029239    0.13164581907793    0.13365929414252
O           0.99830994453900    1.59260182062005    1.77476847466696
O          -0.21125397317981    0.82454381020030   -0.19585587659497
O           0.31835928669132   -0.68899600966252    1.59772457631326
O          -1.39419884722094   -2.38480318569447   -1.79333918180815
H          -1.17211048529975   -2.42227079295243   -2.72472132225524
O           1.71511525309257    1.91412708482574   -1.77804197316313
H           2.07086897366723    1.17289420711276   -1.24947359362274
H           0.76060529742942    1.80702248630191   -1.67541310648933
O          -2.53923388899598   -0.24095932374402   -0.72105694051109
H          -2.24965360507386   -1.03278773267682   -1.23266457381232
H          -2.50300319613750   -0.71275227764982    0.64425358263558
H          -1.72423320232737    0.30885897693980   -0.64814858279350
O           2.20480995859768    3.40339832954519    0.34794291072432
H           2.04108533996691    3.01912713107778   -0.55071603574514
H           1.42660147864651    2.34749703406422    1.28454137650513
H           3.14674341645085    3.31175713264525    0.50756378475367
O           0.92681243942383   -2.28786498184093   -0.45073370565522
H          -0.53826180529051   -2.41087449261886   -1.30841313985452
H           1.63463645566572   -1.70096371385784   -0.74138818142089
H           0.70798008416714   -1.93604020043789    0.42835364918931
N          -2.22837584804141   -1.04392471323522    1.67605477263118
H          -1.15936874442938   -0.87905510158557    1.71700985540037
H          -2.42697886078532   -2.03069117387879    1.80713701218255
H          -2.69278079288922   -0.48576557484639    2.38431088062703
