    26
        -50.46224013  Gyration_radius:  2.54876889311 Dipole_moment: 4.822
 S          -0.44566055730300   -0.37651666060363   -1.04088855566397
O          -0.48625079281263    0.04062168535119   -2.53803287659864
O          -0.16629212938986    0.81756063864505   -0.25088876973388
O          -1.70765305633944   -0.99039110566974   -0.68317862979325
O           0.68613259545030   -1.31675086647699   -0.96262620022710
O           1.04991491598683   -0.45091736441908    3.09058181217614
H           0.44583822775226   -0.23073021247142    3.80101008271042
O          -2.83553127634393    1.31521789471527   -0.07143770361469
H          -1.96269447405128    1.66986120825141    0.14144736987020
H          -2.65984529088384    0.35822699208165   -0.16572914383207
O          -2.69625345786375    1.40382379736658   -2.70728174902711
H          -2.86476489097917    1.53405580977027   -1.73933811892083
H          -1.29659344757838    0.60512913525951   -2.67327238491582
H          -3.37998364306474    0.80569447450801   -3.01686049193621
O          -0.28883686240580   -2.05689345209247    1.40884489694361
H           0.57010519721469   -1.08670974643978    2.51268611151057
H          -1.19103938386010   -1.84365725392342    1.14368048637305
H           0.19431775139252   -2.01800362889274    0.56649160835015
O           1.84835686523773    1.36337067210272    1.32192956133502
H           1.03769442269758    1.35233744830697    0.76110484302316
H           1.61006407862800    0.80573640642280    2.09959541063621
H           2.59594152207019    0.44728479462538    0.49124019568010
N           2.94779921210786   -0.34927442439539   -0.20976717379220
H           3.47163740008776   -1.06443249520811    0.28471291623957
H           3.49577023524636    0.03706956055325   -0.97088453327509
H           2.02782684892199   -0.77171331738311   -0.59313895351014
