    26
        -50.45652776  Gyration_radius:  2.46332322066 Dipole_moment: 4.625
 S          -0.14263586819227   -0.67635775932015   -1.74145503651372
O          -0.81600003579229   -1.65513714220735   -2.51943035822234
O           0.31041552504720    0.48303154367624   -2.62017562550481
O          -1.14820664146849   -0.04017018240588   -0.75517270300639
O           0.99398000004510   -1.16056437965062   -0.97145109638361
O          -1.03018153732506   -2.16725567292060    2.22423566215615
H          -1.94808210164520   -2.32598430196753    2.44937452062971
O           2.28392825671631    0.30346167357018    0.74084015736641
H           1.89778039692632   -0.32101818234614    0.08020769364519
H           3.14916759367720   -0.03869063814929    0.97003143860490
O           1.33475627210417    2.16754240195363   -1.06558761003756
H           0.52976695762439    2.54362205962586   -0.61255940851946
H           1.81724762590292    1.66852602952912   -0.38500228610351
H           0.77870409978571    1.20681480737463   -2.03446912159492
O          -0.31254940951914    0.30159541464626    1.61045990658021
H           0.65771181801864    0.32588443609276    1.54612650686764
H          -0.78811657589772    0.12069700079656    0.19668999799378
H          -0.55042506044161   -0.58714615471725    1.97270721437059
O          -0.58811770757217   -3.20290481744981   -0.22316408682237
H          -1.12425002279808   -3.07318573561277   -1.01363807066346
H           0.22598713862028   -2.71591744600085   -0.41784965945690
H          -0.87230334105603   -2.63443416716905    1.37519524640964
N          -0.92302657147352    2.87143001334326    0.17728573864833
H          -0.89725968615721    2.34306371289431    1.04250532692870
H          -1.62748375737225    2.44460984971863   -0.41229119740270
H          -1.21080738775568    3.81848764670351    0.38658686001914
