    26
        -50.45652770  Gyration_radius:  2.46343019509 Dipole_moment: 4.625
 S          -1.11740388535959    0.65870733511586   -1.35283921406257
O          -1.11219789079010    1.11437878872737   -2.69779886190356
O          -2.29556043013101    1.25549668322438   -0.59294919683651
O          -1.12477194420960   -0.78684800349128   -1.18065488646949
O           0.12852480722110    1.21685707047799   -0.62854426622984
O           2.76114828899942   -1.25961780178195   -1.22223010178179
H           3.52486000420941   -0.74669099658370   -1.49063985695151
O          -0.88382103583782   -1.95083938106648    1.12749901841651
H          -1.03273178278596   -1.61259805244028    0.21160454875091
H          -1.17117375290150   -2.86501344841464    1.13347757528786
O           1.36778375048223   -0.41519495920131    0.85910691092551
H           1.96548051893705   -0.80303950643745    0.17349722571290
H           0.60776971235694    0.55263886074598   -0.00367438394239
H           0.72219316612690   -1.10545841567564    1.08879632760008
O           0.81533486274156   -0.85853618236375   -3.04173161701798
H           0.07325678424788   -1.16092037669104   -2.49791478065720
H           0.51165716597477   -0.01242828620512   -3.38938522490574
H           2.10445465754088   -1.17184589091410   -1.94685998004122
O          -2.05686367794901    0.46560624098220    1.77818571763166
H          -1.73061184888274   -0.44940500390780    1.74096633930995
H          -1.29188810073607    1.01773438277738    2.10174488292498
H          -2.27330032085664    0.93489182880999    0.39852871583916
N           0.13612760902663    1.87313649335449    2.36743555363602
H           0.88830540830864    1.20017880470150    2.26838386487783
H           0.28682079815331    2.40211510569085    3.21657989423398
H           0.19660714610926    2.50669472059337    1.57941582566181
