    26
        -50.45652765  Gyration_radius:  2.46333501941 Dipole_moment: 4.624
 S           1.75061775734864    0.62775110890921   -0.23016693960485
O           1.59816060117027    1.77470289934270   -1.22149644659132
O           3.02076101320539    0.68420183992694    0.40246865082659
O           0.65182860505944    0.88481542331865    0.82579522084954
O           1.44029127074396   -0.62552122720405   -0.90275670611672
O          -0.13518885020967   -2.41578039565368    2.20251025659210
H          -0.14227811517945   -2.28551794733054    3.15197884149145
O          -0.88181582269356   -1.15135396045472   -1.93761606831325
H          -0.87166231390867   -1.87292132394440   -2.56805522147607
H           0.04765312973963   -1.03507534307446   -1.62449006375654
O           2.34422840123549   -1.85366179645188    1.31225206994086
H           2.11527095799998   -1.72455867455300    0.38013445436539
H           2.87449722299605   -1.07738729903341    1.52495825321133
H           0.79710922771325   -2.29845886900190    1.91740503151073
O          -0.73960585849221    1.60266110823650   -2.12041390419057
H          -1.28107841759017    1.91712153416771   -1.34412476229893
H           0.65268800071450    1.73876113053364   -1.65889874264634
H          -0.93617327985827    0.65572942536015   -2.21890425113879
O          -1.37610945122214   -0.62667533143917    0.70418085717741
H          -0.18118929260015    0.28347459580486    0.74872820336754
H          -1.40019570669018   -0.96227569496886   -0.20839681518712
H          -1.03496243891001   -1.36364172428907    1.26837281758239
N          -2.00335070299444    2.25739149865061    0.14047890856029
H          -1.24204944466771    2.59896612437578    0.71476124175076
H          -2.28960064015456    1.36343678552606    0.52432299429561
H          -2.77784583274677    2.90381612325069    0.21697212980967
