    26
        -50.45652775  Gyration_radius:  2.46346735154 Dipole_moment: 4.625
 S           1.32245566387985    0.92999747356240    0.94803553052530
O           0.29242435019789   -0.15549937227146    1.33460249426947
O           0.64623858877689    2.24308780995389    1.32251222470340
O           2.50149811417201    0.74236484075734    1.71695559838026
O           1.50133274391001    0.88278846609085   -0.49591349942805
O           1.01791798112981   -2.98265016600770   -0.88125430032953
H           1.02887224238508   -3.75037997938326   -0.30781332479947
O          -0.47401208412906    0.93871117818166   -2.17930845245652
H           0.34761393754308    0.96235794919307   -1.63160640963080
H          -0.21616854300726    1.17112203204203   -3.07249288650683
O          -1.47776070362287    2.33043305849946   -0.01318442291681
H          -1.27879048048237    1.95223035459817   -0.88637650231233
H          -2.04293029161629    1.65623701055540    0.45658268383640
H          -0.23172227183138    2.35662245510492    0.77224407908100
O          -0.94772099178136   -1.23979600608734   -0.58879654551424
H          -0.22651034364568   -0.56915717497553    0.54673048556739
H          -0.89900498172954   -0.60544064705948   -1.32445381366217
H          -0.29685938858711   -1.95672086520624   -0.78909282691713
O           2.98251674665099   -1.32301301761527   -0.07932924958096
H           1.79811536153777   -2.44231138218825   -0.62944273751455
H           2.65560932097381   -0.52425061147938   -0.51859076223633
H           3.16359175943008   -1.02868322177116    0.82050420408799
N          -2.73251253202024    0.33528728900797    1.24495006721415
H          -2.60050404585202   -0.45906920356902    0.62851114000282
H          -3.69576897688329    0.34655932403108    1.55415153885248
H          -2.13792117539789    0.18917241602542    2.05187568728588
