    26
        -50.45652775  Gyration_radius:  2.46343725528 Dipole_moment: 4.624
 S           0.83921828191968    1.67035275160766    0.12618545913193
O           0.16368519197283    0.73183266828857    1.15149606537277
O           2.32094245536419    1.32744468423488    0.21868278194369
O           0.35078315310051    1.31235796257053   -1.19761933855643
O           0.61659012384534    3.01738580727675    0.51683288283615
O          -3.25861620619297    0.29042101439123   -0.07799213618397
H          -3.81210512009800    0.41907564581517    0.69379049342285
O           0.37026107396645   -1.11609715724485   -2.11518230981293
H           0.27796956268620   -1.17210326724274   -3.06731251385929
H           0.36351314429906   -0.15557199139462   -1.88541341388186
O           2.50148886814572   -1.11033145234530   -0.35506990852980
H           2.12975477207008   -1.54153298207743    0.46368958096153
H           1.85943844394771   -1.28277135517263   -1.06431706813034
H           2.46832587878073    0.32956725821238   -0.04305783528784
O          -1.11214092014279   -1.22976571516602    0.18425510042016
H          -0.32831146450179   -0.07868021768733    0.74824638783521
H          -1.98246463881201   -0.77953114586839    0.05184157286510
H          -0.73675190356864   -1.37702260643349   -0.70091361518852
O          -1.92163950335165    2.58554490384940   -0.52757828344514
H          -1.22682266885721    2.21502693420511   -1.09129784797054
H          -2.85765700832761    1.16456534124179   -0.27578447289118
H          -1.43401749848895    3.10944218897012    0.11808481340534
N           1.27085344576441   -2.04642722913722    1.82396792006995
H           0.32749180390052   -2.23849402089092    1.50525016619040
H           1.22599401759294   -1.22068466284299    2.40892322396859
H           1.58421671483849   -2.82400334712702    2.39029228532615
