    26
        -50.46972947  Gyration_radius:  2.43079060845 Dipole_moment: 5.133
 S          -0.54492897617886    1.40866492214316   -0.42945764890778
O          -0.91179660813148    1.90838261949573   -1.72838653915298
O          -0.76748985172475   -0.15998902618320   -0.53529269071259
O           0.90036627408741    1.55172645522692   -0.16026992677433
O          -1.33886026057205    1.88096833295801    0.67979941126962
O           0.81751174389879    1.23487787505326    2.45754119749392
H           0.03728985098744    1.74281958549199    2.69841388213416
H           0.98480390481751    1.47157007065068    1.52190258317343
O           1.27396934783928   -2.50349693668304   -0.01866999315842
H           0.88118924256931   -2.10071277723825    0.77646468551881
H           0.59860117951296   -3.08255496474469   -0.37700414293289
O          -2.55698961588532    0.08684624281812    2.20128978644974
H          -3.49709350619527    0.10513278286430    2.02099530082671
H          -2.16520759109126    0.81373463011841    1.66813256030317
O          -0.07751107875177    0.05515614569333   -3.33507338702675
H           1.16361335641336   -0.31691132786934   -2.38494039312111
H          -0.80521191537787   -0.56896432584706   -3.29795129417779
H          -0.40292932999488    0.84802442974478   -2.83204330599856
O          -0.19057777508216   -1.10765954718344    1.82846457380654
H           0.30198209554663   -0.32650473905755    2.19350774435277
H          -1.09453429941224   -0.99573942593120    2.17254343058384
H          -0.57932811367836   -0.54000403385158    0.36532567085072
N           1.85745174291739   -0.36127138130183   -1.58391767809912
H           1.70822851086692   -1.23108025124489   -1.02164056911184
H           1.59240074847753    0.47702742271435   -0.96864716863233
H           2.81505091408900   -0.29004277781355   -1.91108608896344
