    26
        -50.45652768  Gyration_radius:  2.46362577661 Dipole_moment: 4.627
 S           0.62487922289360   -0.17613607810728   -1.75859500110808
O           0.20954129641233   -0.51224628878686   -3.07438361228195
O          -0.04204003055853   -1.14689333786248   -0.75793886995654
O           2.11830084453369   -0.42771633686196   -1.59122784589302
O           0.32169443986443    1.18278701094720   -1.33345842768447
O          -3.24458342427823    0.41971832205717    0.09274824276490
H          -3.89124227186386   -0.28392871813902    0.02148714474199
O           0.71521399221461    2.04119008874481    1.08461213798757
H           0.73396821620096    2.99639112847521    1.15922449186094
H           0.57402767111763    1.83383972816195    0.12934221443278
O          -0.97647283737045   -0.09624384453655    1.34792609906387
H          -0.49707317739933    0.74272175465986    1.45910323815693
H          -1.87445318706796    0.13399021788099    1.00381300903896
H          -0.39282946327497   -0.71264780536174    0.10811631333151
O           2.63518930094182    0.07167729605882    0.81453844014912
H           2.40529369374849   -0.20424057105072   -0.61462595247456
H           2.09445668047161    0.83907289653004    1.06700131581783
H           2.23180520195037   -0.71352343579014    1.27853871382921
O          -2.13987283744680    0.77806094376270   -2.33803032576757
H          -1.35055781091401    1.25705198208365   -2.04568357776692
H          -1.78784292586611    0.09737340851152   -2.92267638032159
H          -2.92779618880888    0.59336651253897   -0.82023046685771
N           1.29930617532658   -1.98811338729039    1.86872743454934
H           1.10231325355783   -2.55197222236118    1.05065391756058
H           0.42141900709776   -1.57763922533553    2.16753173758576
H           1.63735516849951   -2.59594001892551    2.60348603921960
