    26
        -50.45652775  Gyration_radius:  2.46337001736 Dipole_moment: 4.626
 S           0.84858633985193   -1.39291246195242    0.92175519533549
O           0.26221240662855   -0.02836957641575    1.34905453435703
O           0.24820962395205   -1.75841369515829   -0.35307852972605
O           2.33235902632032   -1.11763885843726    0.71154353514740
O           0.66152644087795   -2.32613548364449    1.97570668358871
O          -3.25247738059927   -0.14442761170155    0.32490678804912
H          -3.74189571697656    0.17186265684755    1.08572154343357
O           0.18670347610694   -0.17165949617997   -2.40680431252265
H           0.20049152867919   -0.86888499181022   -1.70737181644278
H           0.01352294554753   -0.61794988740271   -3.23691904269440
O           2.46062475676164    0.64934627714944   -1.06743096649523
H           2.45573474023609   -0.41152888864691   -0.04515056701306
H           1.75985411647666    0.45371613840748   -1.71217578300432
H           2.16008548361833    1.46083909061585   -0.57172304141705
O          -1.09306414305094    1.19299883537497   -0.40686220186735
H          -1.97107095780360    0.77902971174189   -0.21881505167786
H          -0.26287697439332    0.47282627663026    0.61791904089818
H          -0.79542307156948    0.83900974170399   -1.26253020824917
O          -1.95720943060891   -2.39251789659255    1.04973371113383
H          -1.31372419755833   -2.40249076819816    0.32607010368890
H          -1.41540121811794   -2.52193024929352    1.83639765293960
H          -2.86883231188759   -1.00949278276177    0.58678826120328
N           1.42083191703772    2.63931775342924    0.38073484953016
H           1.78111969275268    3.58335260366468    0.43076897688101
H           1.42654778712807    2.24361717992887    1.31315503712188
H           0.45356511058499    2.67843639268708    0.07860559777376
