    26
        -50.45652767  Gyration_radius:  2.46331565896 Dipole_moment: 4.625
 S          -0.49342061619161   -1.75518969563399    0.43176151446567
O           0.72804881043088   -1.13140700959245   -0.28057030153447
O          -1.58465112136767   -0.79329919930790    0.37342356033439
O          -0.76528638684952   -3.02434237985148   -0.14447473098573
O          -0.04680022447900   -1.91277925131670    1.87991551018762
O          -0.66789592137872    0.70783650611819   -3.12421601710768
H          -0.12063345047579    0.45783921185670   -3.87018558743926
O          -1.33993515119406    1.68525484249859    1.10528617272102
H          -1.55496178225033    0.75564612909581    0.84972388333313
H          -2.17493962773714    2.12537460449472    1.27070260396503
O          -1.87270424954397   -1.51768598757448   -2.20060491544676
H          -1.16587730173026   -0.09864174065352   -2.86798818284695
H          -1.45613569005277   -2.36495721240167   -2.00653884936461
H          -2.11103993464497   -1.17551379015806   -1.32651696840033
O           0.53821309982279    1.32726161535447   -0.85517868407123
H           0.09877672603187    1.23184422512545   -1.73581552583394
H          -0.12994428032561    1.68889343092928   -0.24788193875051
H           0.65147686542183   -0.12417029993102   -0.48361119789830
O           0.53035233716868    0.39624498175157    2.67881805157092
H           1.39179985630817    0.56680604599027    2.20601050057123
H          -0.11787846993357    1.00297994245402    2.28285804059886
H           0.17622789221338   -0.97795641161137    2.28344229131412
N           2.69569840095481    0.73257080435509    1.15046817933703
H           3.58309302464975    1.10780916853526    1.45909773447160
H           2.35974551848018    1.29369612609585    0.37545081415922
H           2.84867166669375   -0.20411465664494    0.79662402265215
