    26
        -50.45652780  Gyration_radius:  2.46354541931 Dipole_moment: 4.625
 S           0.12602472775154    1.26601273504063   -1.37564592334362
O          -0.60303355183057    1.83908760447303   -2.45113563914065
O           0.74031061375958   -0.02450319378116   -1.65190679947596
O           1.19762654309088    2.23165547915068   -0.88478576030958
O          -0.81811311299187    1.09311290754555   -0.16429564120243
O          -2.33086734864426   -2.21451777556197   -0.60866990567278
H          -3.26773271814466   -2.08010673167029   -0.45820851614053
O           1.92550139795804   -1.45628650658348    0.16043175276506
H           1.54543737612616   -0.97208302984387   -0.61201891041204
H           2.50659658822071   -2.12989686852333   -0.19574448276799
O           2.27120381955964    1.12150023569561    1.09492043113425
H           1.70731148990267    1.81176757655447   -0.07862954614109
H           1.56320468029841    1.21491101668224    1.79103342140453
H           2.32493031638658    0.17217843554960    0.89257180052527
O          -1.61450451727846   -0.73272635340067   -2.74154756489805
H          -2.11726664667151   -1.74152393128338   -1.44214514909177
H          -1.81817626474569    0.19641778838197   -2.89767547213228
H          -0.66043207985036   -0.73179745464628   -2.57549614285700
O          -0.62904413512452   -1.10335861711327    1.08153002796926
H          -0.71255095883014    0.20800526462702    0.35216509079586
H          -1.26398476337236   -1.62937764735162    0.53581479221676
H           0.25960816045202   -1.44418639803878    0.88100762152699
N           0.16672179264328    1.27795766320393    2.73361361906307
H           0.19457923346961    1.56377880686145    3.70373008719296
H          -0.24883137886196    0.35438694860591    2.68091887421392
H          -0.44451927326397    1.90959203543513    2.23016794478977
