    26
        -50.46515675  Gyration_radius:  2.51567744889 Dipole_moment: 4.766
 S           0.53836540223499    0.88705938812964   -0.71838091558441
O           0.97232789001903   -0.12050626381987   -1.69558123700783
O          -0.71970211881280    0.43163427970119   -0.10376243917991
O           1.53472717899200    1.16945542305907    0.28758190165490
O           0.24029869431750    2.19724982708692   -1.48788326736052
O           0.24432948727356   -0.51143124603842    3.58080358960787
H           0.58275448269594   -0.25765094797641    4.44073402471287
O          -2.46976228054957   -0.26453925552888   -1.92420474848771
H          -3.29119250179990    0.19769673729128   -1.74854177551217
H          -1.85513487239465   -0.01445224328111   -1.19597241429675
O           1.90596441298716   -1.12619088799066    1.61019834985238
H           1.04209242952439   -1.83019672218794    0.65145770999075
H           1.96231107515994   -0.24951775028244    1.17264977799942
H           1.35289817675776   -0.97875347989584    2.41723838816947
O          -0.69141430173655    0.95915111283896   -3.55319009185249
H           0.05206735798490    0.35984574753662   -3.40167394708173
H          -1.46629742713343    0.49939906308617   -3.16767463876154
H          -0.16595933663129    1.90836463538746   -2.35580388060962
O          -0.33847205841950    1.69157767608708    2.21656683302584
H           0.53237308280832    1.94616803898313    1.88458145102407
H          -0.74689720011663    1.27316116171645    1.43786400214126
H          -0.07417322089842    0.32274169508491    3.15317299924941
N           0.36286933394512   -2.11175340060828   -0.17700675570189
H           0.63666790117689   -1.41959934958831   -0.94796165679432
H          -0.59233458288073   -1.87840754294696    0.09055930159487
H           0.45129299546078   -3.08050573574523   -0.46577058077619
