    26
        -50.46515668  Gyration_radius:  2.51597412005 Dipole_moment: 4.761
 S          -0.12812019887950    0.67945551791333   -1.05398126343520
O           1.32502837679045    0.87580220256714   -1.14450344539518
O          -0.38552704910914   -0.62409846947053   -0.41963096912874
O          -0.80290709956335    1.74241343504349   -0.34734302599484
O          -0.69013382147414    0.62199879109022   -2.49552037571330
O          -1.82236382295728    0.25179957129017    3.12767195148550
H          -2.49590601538410    0.66473707407157    3.66999888809818
O           0.98148420847016   -2.53075596042781   -1.58417083472240
H           0.37757203441224   -3.23726904097646   -1.81947504885845
H           0.44137282606254   -1.85735846963762   -1.10930919789318
O          -2.73393146358982    0.06979927364246    0.63955039232129
H          -2.24041446759578    0.08961033137929    2.24513695512031
H          -2.56759802976783    0.96270629961615    0.31020491299336
H          -1.99789521013881   -0.43786825594873    0.25386484745452
O           1.38642503181570   -0.59551574088074   -3.42848060655204
H           1.35868708712451   -1.43378205040095   -2.92159438960638
H           0.00515035316209    0.14181661040392   -3.03231116500313
H           1.87489122346926    0.01880842662388   -2.86383576509561
O           0.17189263266143    1.69279574865157    2.14324059931661
H           1.15920956598842    0.67802650981993    1.74826436881700
H          -0.20851045468747    1.90765252776776    1.26440795199378
H          -0.54299601668670    1.20595946368071    2.62377110845396
N           1.77657310411821   -0.06827062740145    1.21069020513017
H           1.78382157863684    0.31340328343097    0.20936584857553
H           1.26638209435959   -0.94974397012133    1.17668608881308
H           2.70781352276891   -0.18212249178002    1.59730196882324
