    26
        -50.46515676  Gyration_radius:  2.51558736526 Dipole_moment: 4.770
 S           1.13550721274127    0.17536186253260    0.52289527934048
O           0.03959899820873    0.81361667856339   -0.22508284753280
O           2.23755234601199    1.23996867258989    0.74566426732637
O           0.62759241799656   -0.22958907214299    1.84061257970372
O           1.70766532856574   -0.91788518807921   -0.22672626069158
O          -0.86923485976936   -1.74561200202536   -3.05843349973542
H          -0.61638713318044   -2.24835545065726   -3.83416443089547
O          -1.13059115615586    2.67126231108405    1.20318338958603
H          -1.15792412725092    3.47913160529375    0.68742778969271
H          -0.72810761717855    1.98803167020048    0.61831987765721
O           1.03572040626923    2.28907942147533    2.77610684267137
H           0.20470353094562    2.60583832120740    2.36429859853289
H           0.85752976698874    1.36959314610347    3.01624772012392
H           1.92465948642102    1.78663552046045    1.52348948822858
O           0.95508988209865    0.13840378006596   -2.63851654456586
H           0.51520230243911    0.60193499405336   -1.90377904786978
H           1.64612958363058   -0.36270476004493   -2.18594054349968
H          -0.23928767091841   -0.98364469794160   -3.00670995241477
O          -0.29571292497634   -2.64422440522015   -0.63243699450445
H          -0.55953542719312   -2.42379111357860   -1.56026667447164
H           0.55430398569329   -2.17536069606775   -0.48804397963299
H          -1.17311517398012   -1.84938416607702    0.23888823695331
N          -1.61720635548578   -1.08753069364080    0.90930516588370
H          -0.76963960638016   -0.75026594385212    1.47160699335173
H          -2.36355159854961   -1.44603484792362    1.49595264610095
H          -1.92096160700465   -0.29447496638282    0.34610189063272
