    26
        -50.46515669  Gyration_radius:  2.51585548189 Dipole_moment: 4.767
 S           1.05212662083455   -0.56789011765085    0.40055416131139
O           0.37531600990425   -1.12739044334670    1.54661489328907
O           1.05241558432954   -1.46224543544046   -0.76497406899253
O           0.44977156010278    0.71606816639537    0.00505038791325
O           2.52564081445788   -0.29716377173148    0.79154595140028
O          -3.01399617555016    0.81096732791006    1.84987508444049
H          -3.51997229867739    0.80875494887706    2.66371700238645
O           1.54812239901655    1.64278165356255   -2.18466656422032
H           1.10046132054549    1.34629072223942   -1.35850783455784
H           1.82641235952729    2.54646393774800   -2.02589668544687
O           3.34546677655254   -0.30732141631866   -1.65676188917488
H           3.02487752244742   -0.24612088104968   -0.07452717935618
H           2.74634562259500   -1.06073046512652   -1.74775661462544
H           2.84974955581422    0.45286401054832   -2.02663944416775
O          -0.47349008571302    1.31992920991729    2.43463976974181
H          -2.10603506014564    1.12315440189934    2.09102005734314
H          -0.16544118079057    0.44907547289099    2.71786873661637
H          -0.12712199303388    1.38100715136830    1.52663607655253
O          -2.16877079448973   -1.46720074506785    0.79250090684936
H          -1.82237142254482   -1.09221205021461   -0.58590044093078
H          -1.27118734030749   -1.50039970527907    1.18809933285893
H          -2.59945060007702   -0.67113338114535    1.19225735046875
N          -1.31433832472710   -0.77275810162769   -1.51702669321521
H          -1.75460463214704   -1.12143346064047   -2.36222130982115
H          -0.31967614240022   -1.14696333649120   -1.37943725203793
H          -1.24025011550915    0.24360631775726   -1.51606374462724
