    26
        -50.44829510  Gyration_radius:  2.45634478408 Dipole_moment: 7.707
 S           0.26125854194183    1.75878508088218    1.09067494303670
O           1.29526646976046    1.75164545291313    0.05859033824815
O           0.69158740198863    0.63166020976590    2.12520548433200
O           0.08234320119481    2.98414063154693    1.78099224269350
O          -1.00394242929827    1.22361142641722    0.51288154238657
O          -0.67804986010659   -1.52467622679335   -1.66604301746582
H          -1.07888063673493   -2.08445913091824   -2.33186800254628
O           1.03851234319381    2.32673443055057   -2.51813280974719
H           1.24021425181476    2.15990235495862   -1.57296157001433
H           1.01294239964095    3.27958460598555   -2.61704549267575
O          -1.21379845908706    0.92119898126968   -2.14635962126540
H          -0.43481476503847    1.40937023210398   -2.48800445722203
H          -0.86754759560595   -0.56297632356069   -1.95378041840018
H          -1.28499858682963    1.19673437842721   -1.21126416582075
O           1.47300712009291   -0.85765817058661    0.03239286926584
H           0.90689010359545   -1.19708342272972   -0.67583929670867
H           1.63218851318607    0.08159581430951   -0.19405638367881
H           1.07267490146222   -0.01839155300906    1.51110083171894
O          -1.61249496494871   -1.14565888161629    0.69814944455373
H          -0.94818287989276   -1.60877340916287    1.37668257728435
H          -1.39636945305208   -0.08691120998036    0.70372744698822
H          -1.32342240712063   -1.41716881777574   -0.23516238335170
N           0.07991602941131   -2.23363516742542    2.28218650806898
H           0.92138508293092   -2.30808952337363    1.71955607776437
H          -0.11831752218076   -3.12975394871363    2.70799378697918
H           0.25263320968264   -1.54972781348524    3.01038351557680
