    26
        -50.44829484  Gyration_radius:  2.45645514717 Dipole_moment: 7.720
 S          -0.72451693643772    1.48671351751506    1.26945662384889
O          -1.49930413394972    0.40979684439325    0.59121573138427
O          -1.53245565233020    2.33372383202712    2.06939227410303
O           0.27515989616210    0.67926619903379    2.20485816140797
O           0.12256807583099    2.15500270162814    0.28425918671205
O           0.23722815674945   -1.45992048687647   -1.83686630882815
H           0.19615656859418   -2.07285841541348   -2.57164637742815
O          -0.46870852427312    2.77003413294966   -2.22738003340792
H          -0.18583594254328    2.63991032345160   -1.29739678202817
H          -1.01705075168237    3.55588641642569   -2.22742220411727
O          -1.56379343068305    0.32657762555382   -2.09103193162890
H          -1.19045563831339    1.19555803581153   -2.35035714354752
H          -0.45515103668276   -0.73519598178591   -2.03408104377964
H          -1.75472120399648    0.41677712155607   -1.13666477422817
O           1.70353942517674    0.09064192553402    0.00769533257558
H           1.40342437886193   -0.42575358718503   -0.75416557145592
H           1.31499804130642    0.98085295805634   -0.11693278649588
H           0.93846250432606    0.41326199501594    1.54616185592754
O          -0.70226692852646   -1.90954217925051    0.51255662597802
H          -0.33072477260651   -1.87658818386536   -0.43072752563863
H           0.12118954164259   -2.00139765875825    1.16857412811002
H          -1.10319076662824   -0.91447128634114    0.63333363084853
N           1.34103327706711   -2.05132386883857    2.04881017126799
H           1.12461357418190   -1.46729944649930    2.84874446889896
H           2.07237364871979   -1.59103829751566    1.51644423503182
H           1.67742865003575   -2.94861423662384    2.37317005649132
