    26
        -50.44829495  Gyration_radius:  2.45640787869 Dipole_moment: 7.712
 S           1.35727868078470    1.24940490987683    0.97245488052848
O           0.14282400169467    2.03448956011474    0.76418786874335
O           1.59771547457755    0.40148947366867   -0.22909439296291
O           2.50455849727138    1.97682462713887    1.37827407432343
O           0.98501156669194    0.18829989997053    2.09568016458450
O          -1.25115121582131   -1.06700799295356   -1.68967674936287
H          -1.63915251936318   -1.51082630153044   -2.44452097759264
O          -0.68879266227668    3.19437189130266   -1.47174150958160
H          -0.19498301406128    4.00618411163198   -1.59585411319374
H          -0.43048010301549    2.85487928141397   -0.58867103385398
O          -1.42537005642602   -0.05119440770151    0.93584347228309
H           0.06078292056784    0.00956065829111    1.85373489174106
H          -1.12780200853606    0.87440615955684    0.81904388986400
H          -1.60460855215747   -0.37480921795297    0.04118297251049
O           0.20396462827455    0.87376903324688   -2.47433918689888
H          -0.74404801983894   -0.26315947281980   -2.06421243254104
H          -0.21314790505858    1.74381691084086   -2.29876742646810
H           0.88268213008589    0.78218813368641   -1.77697734311465
O           0.78610963512941   -1.90953188512910   -0.36885389529973
H           1.23078332413666   -0.93034300066287   -0.26911082477030
H           0.44263468324976   -2.20107071088978    0.58680339148805
H          -0.03302085614104   -1.71483948971220   -0.93434112983389
N          -0.11257326546320   -2.52989336679865    1.94715032399762
H           0.52525383105466   -2.10644547941818    2.61175176908352
H          -0.25937917754414   -3.49900394221229    2.19786800196377
H          -0.99509001781346   -2.03155941295585    2.00218532436319
