    26
        -50.44829496  Gyration_radius:  2.4564289169 Dipole_moment: 7.711
 S           1.09678495355998    0.80380923059177    1.58090425731086
O           1.65010099629788    1.37617578797901    0.35580249441171
O           1.54887633857593   -0.71985422161713    1.57505933956217
O           1.51347020555043    1.41070777213771    2.79256680375910
O          -0.38514603199749    0.71858131803754    1.44954359616366
O          -1.61089451782126   -0.27398463606249   -1.69992007852406
H          -2.35735007476521   -0.34082124578849   -2.29632226889315
O           0.65356682053868    3.34003215317433   -1.12309409745148
H           1.12716577533115    2.65390898094563   -0.60661129105349
H           0.85198225859789    4.17433346183973   -0.69543521099263
O          -1.60517404921379    2.00854136997678   -0.56407916110173
H          -1.62464853890996    0.68021682042328   -1.33556277053657
H          -1.26050244741324    1.69521458949958    0.29522425805901
H          -0.89991306146786    2.59371278636669   -0.91327132167751
O           1.09859316854479   -0.74392637680264   -1.07256599379460
H           1.41259953450975    0.15147752067773   -0.83047238598851
H           1.49565993166629   -0.90384840685920    0.62213843122013
H           0.24835498814026   -0.60369199227551   -1.51381347266560
O          -1.50120068580258   -1.31381544014697    0.64797183154064
H          -0.78949213441846   -2.09382901246654    0.61359811484717
H          -1.02106070183152   -0.45601597339608    1.09597310038138
H          -1.64859584439639   -1.00153507870638   -0.30560441226335
N           0.28571951697931   -3.14200550412791    0.50120250189913
H           0.81764871488461   -2.89033878736052   -0.32578294703555
H           0.01951187656441   -4.11644582636307    0.44407757968620
H           0.88394299829366   -3.00659927967765    1.30847308314324
