    26
        -50.44829513  Gyration_radius:  2.45629352349 Dipole_moment: 7.707
 S           1.48396216867821    0.08490298027112    1.46361897835514
O           1.00631913049973    1.45268963817125    1.27538849699099
O           2.67489406262762   -0.05777357558966    2.21951460170052
O           0.29998247082474   -0.67650671976400    2.20131434901883
O           1.54887104440237   -0.59241570523092    0.13774701536963
O          -1.10011058451461    0.08103792575429   -2.08354747155809
H          -1.43869909425005    0.04250687218481   -2.97864718026891
O           1.59135425561971    3.13362922104450   -0.69129659974734
H           1.36921836533129    2.60559280568061    0.10472074572386
H           2.45673393720801    3.50965539867331   -0.52393971265238
O          -1.41636154220727    0.68893877250975    0.65257702895999
H          -0.64625719709957    1.26817608310778    0.82638922334201
H          -1.48468893392158    0.64007668843430   -0.31191447041011
H          -0.46164658054139   -0.24601002388611    1.77765545451008
O           1.32414852235425    0.87014554988863   -2.10243054706543
H           1.61905432414529    0.31526534620273   -1.35378522394911
H          -0.15794703086737    0.46933026712536   -2.15416904694330
H           1.41491693283895    1.79083548439182   -1.77691136240911
O          -0.30929773519634   -1.94704998019245   -0.71674555496151
H          -1.00556808053639   -2.08963820588505    0.06490600803232
H          -0.69587573899812   -1.24327469102621   -1.33607619721065
H           0.54715083726930   -1.43669686072529   -0.29965900922061
N          -2.00348107264667   -2.18541611971407    1.18859315434616
H          -1.45325148260071   -2.29983914533080    2.03240061440205
H          -2.71488982877199   -2.90404446000737    1.15561482061732
H          -2.44853115964690   -1.27411754609099    1.22868187502346
