    26
        -50.44829507  Gyration_radius:  2.45637416133 Dipole_moment: 7.705
 S           1.09482035485855    0.15630000749744    1.76856518371149
O           1.60124844870610    1.19322930098132    0.87261588828377
O          -0.38495543465631    0.06563381728285    1.61713290303957
O           1.60621342623065   -1.21741975069554    1.15432929388386
O           1.51063120896772    0.24751383868750    3.12090342183147
O          -1.63268455402912    0.35268827769073   -1.66411592846214
H          -2.38782478371456    0.49522528093022   -2.23576366831485
O           0.49870224181597    3.53543292836819    0.29361300912399
H           1.00904671845873    2.72275166388436    0.49589764014322
H           0.67255991566169    4.14134303294121    1.01536396992922
O          -1.69459452438974    1.99403725305657    0.28564721761608
H          -1.67703153273937    1.08197210055046   -0.95016708084188
H          -1.32085116569008    1.38079171322854    0.94868115312053
H          -1.01976545059742    2.69991632922233    0.19554641568955
O           1.10568153144927   -0.20496750624535   -1.28161507511128
H           1.38872541632949    0.53323365326280   -0.70382915867252
H           1.54131779996767   -1.00876112882260    0.20718502392170
H           0.24171178053122    0.06090742686587   -1.62822839056075
O          -1.43429220266476   -1.52861058056593    0.07586725162004
H          -1.61322215730093   -0.87012614778914   -0.67433342946799
H          -0.69282614752507   -2.19788447825013   -0.26786335364707
H          -0.97996277819231   -0.89863955412804    0.82717376844776
N           0.42057365949175   -3.06617003252304   -0.79160002123066
H           1.02909078176872   -3.23587937756710    0.00133379375681
H           0.92540826065443   -2.48371050398711   -1.45200373460778
H           0.19227918660563   -3.94880756387711   -1.23033610320309
