    26
        -50.44829512  Gyration_radius:  2.45630221576 Dipole_moment: 7.708
 S           1.52649837907461    0.71152990766124    1.23120767792936
O           1.66164035540439   -0.08919206691660   -0.01837001438873
O           0.71410823928416   -0.25647313501175    2.19504984005214
O           2.77382578404782    1.02651727331342    1.82711272267265
O           0.63587134868365    1.84146202142315    0.97743831525519
O          -1.27654640498326   -0.52575359212085   -1.91107188957353
H          -1.67576701515138   -0.78193029127821   -2.74312725014139
O           0.47474554699393    3.33887325860687   -1.20600527758137
H           1.19554806130089    3.97028240339643   -1.19674071233122
H           0.50706396515035    2.88133089083231   -0.33914762892061
O          -1.48567309311741    0.32592158869644    0.76988232734887
H          -0.18157402747748   -0.12842163364599    1.83973616553436
H          -0.91691813396227    1.12292526660744    0.77944721476736
H          -1.63267344606625    0.13020899775612   -0.16679049956798
O           0.77379060958850    0.92789861350791   -2.33907664375130
H           1.29888090137193    0.58964412062783   -1.58730036864050
H          -0.51113702592095    0.10788719074007   -2.14790293924029
H           0.61002513089506    1.86988675201387   -2.12062457060307
O           0.23218655045655   -2.03021277122868   -0.47348611375497
H          -0.30409114961176   -2.26342091631983    0.40637648487680
H          -0.41217554159745   -1.56042278934829   -1.09997465896678
H           0.92832142018201   -1.24037409323519   -0.22968432092248
N          -1.10596454905505   -2.49473377132545    1.65982689470405
H          -1.80229483450984   -1.75640789707630    1.67127689477252
H          -0.46512343800505   -2.32947735603005    2.42784667120870
H          -1.56256764297894   -3.38754796164558    1.79410167926214
