    26
        -50.44829510  Gyration_radius:  2.45630960041 Dipole_moment: 7.707
 S           1.36551306262215    0.80231773850110    1.35716679477164
O           1.65132415649198    0.20349302498511    0.02277753090655
O           0.72784641965444   -0.40712566286235    2.16736957759024
O           2.53215901585033    1.25054616911915    2.02662322484847
O           0.29196390769993    1.78334505821725    1.21757458256431
O          -1.14702958856864   -0.49012657095784   -2.00060520408711
H          -1.48724503085484   -0.70272568767723   -2.87032147479762
O          -0.10917188210056    3.49772473846160   -0.76642896076925
H          -0.00517577448615    2.94543363482962    0.03729796252289
H           0.48856864436961    4.23839114207907   -0.65533771867359
O          -1.52721386066495   -0.03858577652838    0.75748525869384
H          -0.17320977906343   -0.39256654653899    1.80295931023153
H          -1.10778553417499    0.83722893422023    0.88355554075807
H          -1.62927015595768   -0.13556331397401   -0.20036221354080
O           0.61932071470051    1.33960294132339   -2.17987245018155
H           1.18876016886544    1.00420282362983   -1.45974771680126
H          -0.50299286121054    0.29173193789131   -2.13244366236518
H           0.29064072549043    2.20333037023365   -1.85154800657191
O           0.59018924753513   -1.88164266676380   -0.71505236823678
H           0.09591280120396   -2.31526208889695    0.11181875100118
H          -0.12127103347609   -1.45448974421596   -1.29784275956832
H           1.13415602424132   -1.02086342275191   -0.35321817720995
N          -0.66308281687496   -2.84083416714660    1.30149234886355
H          -0.06788883856093   -2.66583124681738    2.10331979934839
H          -0.95611367697928   -3.80918585151908    1.31008183773263
H          -1.47890405573807   -2.24254580684200    1.38325820296913
