    26
        -50.44829514  Gyration_radius:  2.45632859068 Dipole_moment: 7.708
 S           0.16578437801751    1.58602720002834    1.34503454553489
O          -0.47415940462177    1.59444881055418   -0.00079179868311
O          -0.70073083254613    0.52524091172997    2.15110253766844
O           1.49690066726065    0.99407168424060    1.23428561071054
O           0.09749322263885    2.84113483498839    2.00084985500101
O           0.04297882398592   -1.26661984527759   -1.98830221821812
H          -0.00152090870875   -1.67195073449687   -2.85493631137865
O           3.26172914912687    1.29086878234385   -0.72340967454465
H           2.70026321385072    1.17390668244045    0.07212071581715
H           3.70009205695996    2.13587480983169   -0.61356401338594
O          -1.94851507182534   -0.21910760232178   -0.74599817243419
H          -1.38331940705207    0.62722082488583   -0.38278418804074
H          -1.26264063660740   -0.70580623283699   -1.31269814183428
H          -2.16199797806266   -0.83770998198588    0.08338388925037
O           1.01702461090247    1.08220264800656   -2.17376931177183
H           0.46969590860920    1.47686225443581   -1.46666291364104
H           1.93434777433904    1.12926187108038   -1.82999296058955
H           0.50420656674782   -0.36491387508701   -2.12124453713977
O           0.56308731474529   -1.40659410227784    0.78064387168286
H           1.19570329063530   -0.67051701158843    0.91022930397804
H          -0.32086631133612   -0.29804023152445    1.80059266896038
H           0.53105047055712   -1.54826586688045   -0.17654345595827
N          -2.35965356671745   -1.73194122137858    1.27869586196494
H          -3.13046544069169   -2.38729183624788    1.28131605821460
H          -2.44973124813274   -1.10841664449169    2.07301141899282
H          -1.48675663207475   -2.23994615816250    1.37943134983856
