    26
        -50.44829509  Gyration_radius:  2.45637531372 Dipole_moment: 7.710
 S           1.18199977734863    1.05111742719419    1.35976288282388
O           0.04355151219477    1.91121566024184    1.04559170707209
O           0.58724633906038   -0.12805211771862    2.24391619251626
O           1.62106774017800    0.35534609205656    0.11723105822896
O           2.25044081818401    1.66714277367278    2.05906060848049
O          -0.94076273952102   -0.78316526313342   -2.01505002730335
H          -1.19203424105704   -1.10904658306967   -2.87991830265262
O          -0.34187153378005    3.38366151481259   -1.12689812902489
H          -0.25588029991078    2.92277779351949   -0.26547725602804
H           0.18160576572378    4.18272687092498   -1.05078121729434
O          -1.57310705329367   -0.10604722404793    0.64914552750597
H          -1.59135425801381   -0.30338673745862   -0.29849214667686
H          -0.28031563035842   -0.23186652154937    1.81807819322191
H          -1.24018391955219    0.81256570577490    0.71354601174031
O           0.67363358595883    1.17507206318907   -2.25707051097244
H          -0.35661321126547    0.03826288298363   -2.18109039765326
H           0.24876713662787    2.03267981871255   -2.04298280206203
H           1.21077368955083    0.96399031421982   -1.46822660968532
O           0.80076433637331   -1.87952809021858   -0.47536074058865
H           1.24005516267943   -0.94197694822636   -0.16648671239805
H           0.28115638251816   -2.27539716741276    0.35490108016520
H           0.10390167837785   -1.57705579530067   -1.14721486402343
N          -0.52215635348768   -2.75162107280762    1.53616674626576
H          -0.73275028068498   -3.73738043698820    1.62339759522216
H          -1.38914948324352   -2.22516291498331    1.49872189361375
H          -0.00878491061035   -2.44687206439604    2.35553024950443
