    26
        -50.44829509  Gyration_radius:  2.45633784981 Dipole_moment: 7.707
 S           1.12224845437002    0.67279405136742    1.62430752521101
O           1.83630232623868    1.09460560988447    0.42152546120084
O          -0.34228534584982    0.83255174758268    1.39947777908493
O           1.30786703461908   -0.90414174370032    1.69257135638813
O           1.56377789867267    1.24911585029951    2.84205001060584
O          -1.53230572644998   -0.07009766906994   -1.79059836612639
H          -2.24331722950147   -0.03559191742092   -2.43138955373650
O           1.27675571052242    3.13170701867996   -1.18274500270770
H           1.58856620842146    3.93903264295731   -0.77129479064862
H           1.59573717528306    2.39935130189731   -0.61372840667170
O          -1.20447663948160    2.22416376318136   -0.72814860025673
H          -1.40490003673355    0.88719856825468   -1.45762803100732
H          -0.96918367069705    1.89337581427261    0.16101056963198
H          -0.39049680311287    2.66708782320093   -1.04916739788220
O           1.01768120224925   -0.95897815015458   -0.97600423680274
H           1.46413512926351   -0.11954224750378   -0.74180388745396
H           1.28046684660891   -1.11440478106644    0.74391535395169
H           0.23016818585783   -0.69704642452622   -1.47455467642337
O          -1.73760437743476   -1.01587682775597    0.59052697598341
H          -1.14590511776115   -0.23253794151458    1.04205448440240
H          -1.77421333431840   -0.72286320844677   -0.37962776475885
H          -1.16750842311111   -1.90471022390842    0.62567991625848
N          -0.28149081316523   -3.12209683192207    0.61410522818978
H           0.28365875800891   -3.05528055817089    1.45316809676143
H           0.33213554021375   -2.99820940324076   -0.18485744616099
H          -0.70581294271255   -4.03960626317394    0.57115541295994
