    26
        -50.44829507  Gyration_radius:  2.45632168267 Dipole_moment: 7.707
 S           1.80730326317305    0.17688479282126    1.02664499899171
O           1.58617245736080    0.23434644191418   -0.44602966077130
O           0.86496214237323    1.07905438480423    1.68422228459213
O           1.32351127254597   -1.28811878533578    1.40815193409620
O           3.16906852530371    0.32961494812886    1.39055145056815
O          -1.76820668508056    0.39343335695247   -1.50858514290804
H          -2.38784644364905    0.57060012919868   -2.21711232023610
O           0.05761196885655    3.47290486312715    0.87553442492863
H           0.74095656754041    4.11175910265851    1.08342283944978
H           0.34595128323231    2.62867424637220    1.28293296290621
O          -1.20330226062904   -0.42328134834734    1.13141650792541
H          -1.61305920428176   -0.09437511327018    0.31826793177966
H           0.36144988615696   -1.14907619179174    1.40890747311767
H          -0.66751383955568    0.32353715483078    1.46912282418276
O           0.04922851821930    2.18114253712522   -1.47341714731170
H          -1.11341325304847    1.17743198548974   -1.50309523555916
H          -0.05734673474488    2.80081367700694   -0.72075132311058
H           0.77442702225597    1.58566458349760   -1.19988813371695
O           0.11402417459947   -1.35480319672290   -1.59717246413179
H          -0.69081447516514   -0.74214690892028   -1.66901280461620
H           0.83967154144354   -0.71998925453234   -1.10888789476820
H          -0.14098411118845   -2.12473884885031   -0.92032755785937
N          -0.54163806318360   -3.14604801786548    0.11139716490523
H          -0.92767363704807   -4.02979208066340   -0.19461432418927
H          -1.21458299144088   -2.67394661745297    0.70672573396078
H           0.29204306595707   -3.31954581017561    0.66159547777288
