    26
        -50.45812143  Gyration_radius:  2.42452394203 Dipole_moment: 3.420
 S          -0.24730264852575    1.44861159481046   -1.04418923679607
O           0.36441121239136    1.52191690695311    0.37259185788718
O          -1.26188625355096    2.44571433209478   -1.11699702841506
O           0.79954100360625    1.48602624522346   -2.02981119942397
O          -0.85620509688162    0.03470003130248   -1.12385662764052
O           0.33771567183691   -2.00943020366000    1.39703691919870
H           0.38008063794981   -2.82262111991119    1.90173533995847
O           2.25909165881023   -0.66762829201799   -1.94667946688697
H           1.69126239146284    0.13729566288971   -2.05949947108089
H           2.98213611987049   -0.56944229423466   -2.56835142401682
O           2.21525415867006   -0.16907828694880    0.71417037316069
H           2.41485694053248   -0.44652945181209   -0.20090742978675
H           1.16478997710496    0.89627061393092    0.50793127625990
H           1.66563879784853   -0.87415535209745    1.10721338977669
O          -1.96351476063522   -0.48341160119862    1.02666367772362
H          -1.20538615048669   -0.90800532071335    1.46267283618723
H          -2.07074035881446    0.44992339953862    1.38888342157708
H          -1.41210753910513   -0.18430337609868   -0.24322554453396
O           0.31164784913777   -2.47804349387845   -1.20215763007810
H          -0.39820763542456   -1.87134201014786   -1.44820729796843
H           1.11534504499634   -2.05682839350790   -1.54863238621867
H           0.28463100228480   -2.27650895405689    0.44032877728642
N          -2.16197264807966    2.07554301034883    1.57652022185517
H          -1.41771024958534    2.44390366291536    2.15548985227338
H          -3.02992255525283    2.51142291349635    1.86225508859185
H          -1.96144658018454    2.36599975677111    0.61902173110696
