    26
        -50.45812143  Gyration_radius:  2.42451259819 Dipole_moment: 3.421
 S           1.77432697614556    0.26561206728161    0.17657235212926
O           2.22172872265346    1.10099573554631   -0.90540605102159
O           0.57831521685189    0.99993207818318    0.81434712910230
O           1.16633564153065   -1.03867555401896   -0.38555672640299
O           2.72999776948957   -0.10693993203160    1.16488526610632
O          -2.43742007337726   -0.32241030182542   -0.24109862584036
H          -3.39250640455938   -0.39705474472373   -0.24676320038779
O           0.21838391924274    1.98665862631893   -2.31171190939895
H           1.00547865821542    1.72865043834593   -1.76676533448391
H           0.56452310733405    2.47747771577615   -3.05883227113506
O          -1.65871638295020    2.20078190260794   -0.29789548282080
H          -1.15548277439642    2.29734237470879   -1.12300926241305
H          -2.23316307591322    0.65079149128614   -0.21636333354588
H          -0.98100254359110    2.15505822339367    0.38850391548020
O          -0.55971883932502   -0.60346872544553   -2.18361000282427
H          -0.39305658977327    0.33211569349819   -2.40964267725391
H           0.51925763363771   -0.88806691668007   -1.16592055679375
H          -1.34573450363510   -0.61605349971933   -1.60418120195126
O          -0.82817835241329   -0.64686800913475    2.00981936586295
H           0.00009334987327    0.33096198461842    1.40640184623600
H          -1.43332454842356   -0.85454897079652    1.27783292007252
H          -0.16223917932196   -1.39562714977782    2.10832429983313
N           1.19768608069118   -2.30839025428684    2.16878309965228
H           1.88785981645427   -1.59649897118155    1.92739272435820
H           1.23136288015820   -3.00775328227508    1.43761464023190
H           1.48519350539645   -2.74402201966708    3.03627905721156
