    26
        -50.45812142  Gyration_radius:  2.42451972711 Dipole_moment: 3.420
 S           1.45602638513233    1.06241223755787   -0.02674861098593
O           1.25468114467715    2.08941193177672   -1.01339811299504
O           1.41056439186162   -0.32715953852535   -0.70044732523422
O           2.64854880577751    1.11489510613517    0.75045463885816
O           0.20696280151518    1.08938658985667    0.87628856314607
O          -2.01921559880418   -1.42243085019936    0.04499240557511
H          -2.81666000345247   -1.94126562223735    0.15762159582784
O          -1.16306887374825    2.02110275880851   -1.97535364334864
H          -0.25547481218787    2.12743925464513   -1.59067701685664
H          -1.23076422598240    2.67258086578849   -2.67528718554274
O          -2.49979576489256    1.16372772763470    0.28348317948425
H          -2.26682158358482    1.55014712961222   -0.57663868473302
H          -2.27898553448286   -0.47412789745773    0.19570097351516
H          -1.75625369658304    1.39350782061281    0.85521043635574
O          -0.63763523193070   -0.62892396854624   -2.15499984946932
H          -1.20231539617378   -1.05752500795405   -1.48332514333530
H          -0.96185950028539    0.28756360570949   -2.25029356989118
H           0.62782296033562   -0.44315690139433   -1.35170755501485
O          -0.03456387357640   -1.11340028762860    1.97563800941881
H           0.12358668937268    0.18317791647965    1.42790214199739
H          -0.60879456583169   -1.52734885574516    1.30928247677479
H           0.90372257752747   -1.46077687740380    1.86256754911899
N           2.51234897958688   -1.61925553576734    1.59185004757855
H           2.71695615975417   -2.16077830430513    0.76135516483119
H           3.12921326356418   -1.93028557291093    2.33195726227301
H           2.74177451240872   -0.64891772454132    1.37457225264998
