    26
        -50.45812150  Gyration_radius:  2.42456744194 Dipole_moment: 3.419
 S           1.58451989384258    0.33835273509359    0.79055104701310
O           0.14389085654521    0.62207293138064    1.25996554292603
O           2.33348064282188   -0.31657401046709    1.80993470275858
O           1.41714917655541   -0.66680248540298   -0.37066816134589
O           2.09042697888530    1.58656691686778    0.28583050174953
O          -2.18571551538735   -0.42716378992193   -1.06989035998211
H          -3.07391334206103   -0.58428405688835   -1.39271185507620
O           0.33873165240297    2.77817848009764   -1.22644038331455
H           1.00980102552496    2.39449246836203   -0.60556993478447
H           0.74070056810375    3.56667206970724   -1.59470252231812
O          -1.96583140230952    1.95400172315649    0.05178322694756
H          -1.31189018726404    2.43218105182215   -0.48405943602789
H          -2.20309393497717    0.46254135566264   -0.62541613387353
H          -1.47791572714854    1.69324792919786    0.84324727998146
O           0.11659533541892    0.30693058700053   -2.31029945919908
H          -0.76388574966346   -0.02120265364281   -2.04421218278342
H           0.13124971028080    1.26313741221153   -2.11139193670601
H           0.95763448789340   -0.26893721674802   -1.19581915833286
O          -1.12747014156685   -1.49992838555882    1.27361517423936
H          -0.40439613301753   -0.28478725279015    1.35691870803422
H          -1.48317523095412   -1.44258678271115    0.37070025057131
H          -0.36178001966444   -2.15370532276235    1.28448351635486
N           1.10545953209261   -2.87278187591454    1.41157585953886
H           1.66723573677487   -2.06176116793243    1.67241591703222
H           1.45923692404099   -3.19893237678404    0.52089075767058
H           1.26295485283203   -3.59892826303275    2.09926903892598
