    26
        -50.45300983  Gyration_radius:  2.43483321984 Dipole_moment: 5.195
 S           1.86141079223041    0.89798853434751    0.34270677481957
O           1.21323288612376    1.53475578920872   -0.79404695810894
O           2.22349322137689   -0.53854937790617   -0.06763149419869
O           2.99725115777116    1.56452419967097    0.85836497475260
O           0.79517701702096    0.72898775042449    1.44877781932177
O          -1.22975712039107   -1.13354967542050   -1.61375227136545
H          -1.89408066973788   -1.33066533198076   -2.27510949774588
O          -1.05494745557040    2.95227070125705   -0.83023231814529
H          -0.90173538459309    3.80190424872437   -0.41433675005620
H          -0.17472315121476    2.55125753147795   -0.96816239815094
O          -1.52659402228856    0.64427934983723    0.42272305668073
H          -1.50647561825341    0.00333430005517   -0.31614185357854
H          -0.14404287540782    0.68100121393151    1.03959440714265
H          -1.56725873335620    1.52830666961229   -0.00263398329754
O           1.01040216990249   -0.29626657629944   -2.68468338361171
H           1.12338044724269    0.49101441550131   -2.11148163840460
H           1.73913078937263   -0.87984661121768   -2.45743378566845
H          -0.42449286293137   -0.81773756904558   -2.10666648859591
O           0.37070799183341   -2.16905992575793    0.35942740494708
H          -0.07518760180671   -1.95261281167603    1.22479152939362
H          -0.28801669607009   -1.99736126878125   -0.33376406996945
H           1.46836186441953   -1.22838512660192    0.13423363020038
N          -0.89359139683151   -1.40306355364949    2.58770258490129
H          -0.20765293936551   -0.80309849328451    3.02987442709544
H          -1.27898254597843   -2.02382637529925    3.28743880684269
H          -1.63500927349878   -0.80560203712936    2.24044145480037
