    26
        -50.45812149  Gyration_radius:  2.42458758341 Dipole_moment: 3.419
 S           1.27247098109316   -0.29528770942989    1.24241679294683
O           1.57899813509663   -0.16029707054629   -0.26576180129240
O          -0.25747369382193   -0.47253138405694    1.30626236871242
O           1.94116850549912   -1.46479112728620    1.70519372209912
O           1.55626935725182    0.94635025650236    1.91062078160804
O          -1.76920784889502    0.41982323250672   -1.67295888645988
H          -2.51398579116570    0.52118941468550   -2.26694754783270
O          -0.09687752271074    2.81835571240956    1.17702797814129
H           0.51110601964102    2.12185442976402    1.53516807314648
H           0.17044361940044    3.64025993335662    1.59167989493673
O          -2.34418685632224    1.26900526655447    0.76113761676280
H          -1.73051202361272    2.00269379207031    0.93005220859464
H          -2.08374353048681    0.71632047147264   -0.77709708141237
H          -1.97288377526418    0.53041473188594    1.26023207707135
O           0.49014229473134    1.87915451474273   -1.29371254178012
H           1.20883681674817    0.69831369746193   -0.68540110638355
H          -0.32191863644474    1.43820516731198   -1.60965168890671
H           0.23835663548853    2.39964984770783   -0.50646392644858
O          -0.96591738240024   -1.98534978031714   -0.51825686398348
H          -0.58283519477294   -1.18488778337329    0.58570605097105
H          -1.14136052961209   -1.30419502494986   -1.18933323833343
H          -0.08427360452622   -2.42737700746246   -0.72100163114283
N           1.45760849424765   -2.98113544729440   -0.67557975845141
H           1.74859304324176   -2.59254097763094    0.22203450513173
H           2.04596859239855   -2.55725587367571   -1.38198848050749
H           1.64521390519579   -3.97594127240576   -0.66337751718731
