    26
        -50.45812141  Gyration_radius:  2.42451868629 Dipole_moment: 3.420
 S           0.97111311123811    0.28977692486054    1.49059106040581
O           0.86436998795632    1.68021283057933    1.84266228576768
O          -0.42879871444666   -0.36356192016311    1.50650499190762
O           1.39010574596319    0.25748161693599    0.00741730390992
O           1.82739706941171   -0.52987645503104    2.28043531270101
O          -1.30777515596838   -0.36804405035739   -2.06323189018570
H          -1.72638942541503   -0.53404288793226   -2.90880726500698
O          -0.39711639064392    3.03049791552290    0.00934792249778
H           0.14565308669342    2.57115370948581    0.70024891437052
H          -0.50677307408382    3.93193917563338    0.31642336936641
O          -2.12459891313894    0.95147417881344    0.16610023063800
H          -2.02526553831407    0.46016605969870   -0.67202088808603
H          -1.14748134928972    0.19138141311374    1.03127830549216
H          -1.67307656757625    1.80895156168451    0.04360498443652
O           0.43148620575434    1.61411186457620   -2.21143268021129
H           1.15618064785137    1.20266081684789   -1.72348845858890
H          -0.64109611800996    0.35373260502118   -2.21825588868359
H           0.09646460082740    2.29775221218484   -1.60831052597310
O           0.72889215043654   -1.91907349938810   -0.96433098917213
H           1.19454455921228   -0.69892625575202   -0.41653749965611
H           0.61958555480641   -2.45393610290352   -0.11826647277341
H          -0.14868076461232   -1.65401091333692   -1.28800215150304
N           0.65747771665076   -3.00031687125208    1.42638347852855
H           1.13243486319663   -3.86527659998423    1.65289281999831
H          -0.25887277934251   -3.02087960855675    1.85619718536576
H           1.17021948084344   -2.23334771031470    1.86259655446302
