    26
        -50.45812148  Gyration_radius:  2.42457220796 Dipole_moment: 3.419
 S           1.32959100310780    0.73810004447201    0.96806486005225
O           1.48497680827873    2.10886949668404    0.56117250719979
O           1.37113255770607   -0.09720151088220   -0.32682859165438
O           2.24212359106164    0.22625765302028    1.93467939130851
O          -0.09535555826104    0.51452832329742    1.52156084289096
O          -1.80197204311572   -1.00135802459427   -1.36189097482219
H          -2.42997712948654   -1.45047869540775   -1.92907500052477
O          -0.00159633049264    2.66058744996943   -1.50304822499884
H           0.62965220362556    2.47895813805131   -0.76038820934260
H           0.08035556826318    3.59600073985132   -1.69595504131436
O          -1.88610157537156    1.37342989191736   -0.04601490093862
H          -2.05357496589844    0.53225366482276   -0.51301279663051
H          -0.83219166439641    0.92119849639150    0.93674652455578
H          -1.37408758934920    1.93672861192460   -0.65807833474937
O           0.08391027411793    0.20531091755274   -2.76326169576335
H          -1.10748675288643   -0.61815504909163   -1.96210504643122
H          -0.00755334620928    1.15042451223592   -2.55876525591903
H           0.84806694776220   -0.07610704079523   -2.24427104537606
O           0.22994249183781   -2.25495326439047    0.07448275335413
H          -0.65975226841819   -1.98472350686997   -0.20924573877999
H           0.96189086156346   -1.06557361835714   -0.16162976009621
H           0.26185409561991   -2.27661414907454    1.08061270963787
N           0.60230732748685   -2.00634966114844    2.66086941552075
H           1.00561794142276   -2.73897407496673    3.23147214559669
H          -0.17865113326158   -1.60635801938748    3.16580246868256
H           1.29687868529792   -1.26580132522730    2.55810699854488
