    26
        -50.45300969  Gyration_radius:  2.43487445299 Dipole_moment: 5.196
 S           1.08573260590428    0.18031060442434    1.78273732985077
O          -0.13047377361013   -0.67033070814386    2.18309309188660
O           2.05095806814565    0.17729678526497    2.81645350916173
O           1.65052160762521   -0.51733752061454    0.52446175916835
O           0.59747729919038    1.48886065480254    1.37389175964050
O          -2.09556364976795    0.38549836579104   -0.92810700734510
H          -2.79434565966272    0.76608265444838   -1.46138395830174
O           1.22861937702496    2.88752339511705   -0.81731354381294
H           2.11999967469894    3.22765966821096   -0.72781757955968
H           0.97175547195331    2.55498515427920    0.06478739770687
O          -1.13982342374504   -1.90097209764284    0.24892747103641
H          -0.41651058048415   -2.24220960125723   -0.34670986966698
H          -0.53827883724971   -1.20879577600914    1.38905952294649
H          -1.61641588321268   -1.22712144271433   -0.26354848866542
O           0.54806612229963    0.41782248418106   -1.56362156807920
H           0.82131689816802    1.35906669336815   -1.50503734487688
H           1.19945503656140   -0.15342485836069   -0.32167514124426
H          -0.41954082862903    0.42079175555661   -1.41870936359259
O          -2.03798773015531    1.39305383071287    1.49013978280939
H          -2.17027630440266    0.70817372304430    2.15096997702122
H          -1.07721978420997    1.58711412078752    1.51020495142384
H          -2.14413642302061    0.82944081141169   -0.03832930797576
N           0.84840102543754   -2.60866493695410   -1.39335685448489
H           1.65917847863224   -2.54627751224120   -0.78943587569286
H           0.89976848928222   -1.83421523545254   -2.04517134577751
H           0.89932274322764   -3.47433102200775   -1.91450930358154
