    26
        -50.45763560  Gyration_radius:  2.42183267045 Dipole_moment: 7.920
 S           1.29828647705774   -0.80011412486302    1.46910681192736
O           0.32637254790921    0.13182564421803    2.10824775579247
O           0.56014256519640   -1.59108638714559    0.47330232104298
O           2.28134699061960    0.11606113447639    0.65929916724914
O           2.05834798008561   -1.56116670732525    2.39524976385116
O          -0.22392526790231   -0.03404915206192   -2.63932130086290
H          -0.22630968631821    0.05406040097802   -3.59305381463869
O          -0.75500027476818    2.42766471878837    1.38592348593997
H          -0.24498861223249    1.68151829063709    1.77810071153264
H          -0.42573766633674    3.22502871164116    1.80266165339659
O          -1.69170419119786   -1.53901856983166   -0.90391642127696
H          -2.03148905788716   -0.66283277539345    0.29706252003286
H          -1.35877888122331   -1.00038326614819   -1.64582082895990
H          -0.87648561465051   -1.86193028396855   -0.46737770513910
O           0.77982088730463    1.70917277714102   -0.76661897840601
H           0.31170729081165    1.20159161281575   -1.45200080732928
H           0.11286904797462    2.07426932155792   -0.16016039888263
H           1.72730105610260    0.73979348222088    0.12153987619807
O           1.84956715085761   -1.38969803047081   -1.78344962456043
H           0.58096759372236   -0.57879311892282   -2.41042816584872
H           2.61816337586409   -0.86090303124349   -1.55422194367796
H           1.42920593278687   -1.61074566001734   -0.91792860319171
N          -2.06089701504962   -0.10366040359836    1.22342331505809
H          -1.04916863084790   -0.13333156150437    1.63693030087847
H          -2.71920030067851   -0.51553427167483    1.87592454508511
H          -2.27041369719854    0.88226123969421    1.06752638479284
