    26
        -50.45763560  Gyration_radius:  2.42183117147 Dipole_moment: 7.920
 S           1.24965937329172    1.54604027043053   -0.72944544552990
O           1.48403599450471    0.29751157969487   -1.50909278967635
O           2.19790505487168    2.57037002196443   -0.98673723623827
O          -0.16352592931149    2.05776887676622   -1.17957924725414
O           1.11665683004096    1.16388719947767    0.68419494695277
O          -1.98137374931700   -0.25604152915220    1.73948192477592
H          -2.77501604060836   -0.31704796237359    2.27217539128548
O          -0.08451081940262   -1.63276171676292   -2.38985789307498
H          -0.29737444417867   -1.64159544583792   -3.32392454792593
H           0.50557207526051   -0.85639997374787   -2.24947127805537
O          -1.10538040488605    2.20778946346404    1.56104707333377
H          -1.43114717809924    2.70442848700628    0.80597385874420
H          -1.71158370563355    0.70527440565693    1.74804412405434
H          -0.19196915302519    1.93312216538946    1.30624379631261
O          -1.77221214068494    0.00806118970875   -0.98813154470852
H          -1.89529684237773   -0.23324830941031   -0.05371257980439
H          -0.78641936520957    1.28673187969176   -1.12758000572207
H          -1.32548050428271   -0.73426978911994   -1.43003808969449
O           0.61683886348046   -0.95212881070442    2.18176477105916
H          -0.35570752506365   -0.88206408909643    2.15657639931816
H           1.15152287415662   -1.58591753871233    0.90197424798074
H           0.92086681184741   -0.06542829422304    1.89758365347727
N           1.56727351138642   -1.81484769408351   -0.07087332188562
H           2.48590114812868   -2.23589964680086    0.01629444459002
H           1.63512794065563   -0.86666613035692   -0.61107613794969
H           0.94563732445753   -2.40666860886833   -0.62183451436260
