    26
        -50.45763560  Gyration_radius:  2.42182586401 Dipole_moment: 7.920
 S          -1.34695859691623   -1.57708952215436   -0.42719030596881
O          -2.09842170383526   -0.29890020755880   -0.27509104148373
O          -2.17629721710505   -2.72748021691762   -0.48563937730199
O          -0.58301599474369   -1.45000370345311   -1.79168654708244
O          -0.31486945051642   -1.60825183273824    0.61967436902153
O           2.62259763307730    0.35341799424863    0.11905017397406
H           3.56461645518356    0.50605016323722    0.03745718403302
O          -1.61492007603361    2.20222612142149   -0.96264257684097
H          -2.08585509409594    2.55465567296081   -1.71887246003275
H          -1.92304001581405    1.27260043700683   -0.85542601952520
O           0.64577201764139    0.85460998357144   -1.72332846580640
H          -0.12110348370959   -0.57146533626493   -1.79006632958060
H          -0.01361515790228    1.50934585066173   -1.43621295560590
H           1.35448048688894    0.83513697678706   -1.05709396715424
O           1.96199710916002   -2.09198090580846   -0.55418936612597
H           1.71662567813235   -2.21085435729785   -1.47536849287678
H           2.47061433706207   -0.60065841687343   -0.13319423538364
H           1.10376933400320   -2.06331469446467   -0.06703411727651
O           0.96963332188911    0.01344689872611    2.25981293668366
H           0.59230138691147   -0.79800410680733    1.86156860980496
H           1.67447443450057    0.27057943366400    1.63653718565287
H          -0.31331928106836    0.78987440963501    1.98304499543905
N          -1.28451563350854    1.14961986331810    1.66831628671744
H          -1.92303335726199    1.20728312773976    2.45427276830116
H          -1.65676995120532    0.43444385796410    0.92978882118589
H          -1.22114716073400    2.04471247939934    1.18351294723167
