    26
        -50.45763560  Gyration_radius:  2.42182900762 Dipole_moment: 7.920
 S           1.65214877831558   -0.81959883889298    1.04047512153450
O           2.15311911568763    0.64354635957945    0.77619941646844
O           0.49242949137954   -0.67851502230814    1.96608170239949
O           1.13309170565237   -1.31388848399174   -0.24341485172815
O           2.72971036610870   -1.56953710484372    1.57998145963139
O          -0.49087622361412    1.02487652332968   -2.39285647447890
H          -0.63062352022818    1.50668396912586   -3.20876011884811
O          -1.40076124948393    1.13474029773294    2.26596847144140
H          -0.62049922824944    0.53553385331561    2.31887709577678
H          -1.32862999772725    1.73426250564084    3.00977086514847
O           0.03800583779171    2.02570270512076    0.11153015800768
H          -0.29506936980471    1.73046850250074   -0.75357627698617
H          -0.64253402181669    1.82363654745185    0.77631690249770
H           1.35874451636747    1.18817720672096    0.53632899899808
O           2.00866720173998    0.29233008884704   -2.10070299976685
H           1.79239673553636   -0.41552289322171   -1.44734941366907
H           0.47436100600936    0.76967196359369   -2.38015448928999
H           2.56262187535104    0.91062114021962   -1.61722147607704
O          -1.13193151251497   -1.49912709767468   -1.58700340630947
H          -1.62187041285547   -1.41531916576787   -0.14534265146559
H          -1.09481990003121   -0.61393940321618   -1.99497913152606
H          -0.21192163056462   -1.65654924584948   -1.28994882270741
N          -1.74242799000205   -1.36229492111375    0.92906371908038
H          -2.30128646257169   -0.55706220497929    1.21105338458926
H          -0.74547449364867   -1.19604937404289    1.34610076566018
H          -2.13657062682559   -2.22284793727625    1.29356204161823
