    26
        -50.45300970  Gyration_radius:  2.43477020966 Dipole_moment: 5.198
 S           1.52575707673907    1.09393843190393    0.92908583675506
O           1.16250840130439    1.73122608134224   -0.32784993190966
O           0.21357568528866    0.70882814225480    1.64932636258751
O           2.19377125909840   -0.25024393047686    0.59807906291156
O           2.34964899010786    1.85473716290692    1.79082443450841
O          -0.51635394769771   -1.14856547813049   -1.95323136324859
H          -0.91868981658360   -1.37409215736461   -2.79271130217629
O          -1.16908921567589    2.85194578037078   -1.00798291337824
H          -0.23999002191924    2.57634443571712   -0.88339660798169
H          -1.27033120395486    3.67947720830530   -0.53555127524794
O          -1.65773517996455    0.41329483110072   -0.04206149087879
H          -1.69554611914591    1.31566320230882   -0.42729454193318
H          -1.32649911796205   -0.16061791030119   -0.76187834836799
H          -0.54331547270537    0.57474429264127    0.97029013163868
O           1.79806016841121    0.04267124200572   -2.25454144010644
H           0.34561228289483   -0.69720916526735   -2.16401529108580
H           1.62076098985211    0.79055489794077   -1.64592638256786
H           2.50120735831906   -0.46110664969652   -1.83614677353371
O           0.55081387955424   -2.12767407291287    0.37641257141271
H          -0.15896902694101   -2.03653711909640    1.07091983629501
H           0.11203438014904   -1.98562910815665   -0.47869695788926
H           1.51926456703447   -1.04269926586356    0.53292029308252
N          -1.41544790066658   -1.70059460313997    2.13773058480599
H          -1.89803056961717   -2.41716387104345    2.66418648555367
H          -2.09801271187816   -1.17619872392123    1.60261127760207
H          -0.98500471403575   -1.05509362342318    2.78889772315228
