    26
        -50.45763560  Gyration_radius:  2.42182686685 Dipole_moment: 7.920
 S           2.09095960626912   -0.27933188472194   -0.18382467082913
O           1.46389359438982   -1.51248763784588    0.37088185941745
O           1.65543300080643   -0.23347420555566   -1.69041216577896
O           1.44664539403133    0.87222658762272    0.46492261694888
O           3.50928104207948   -0.28178439350330   -0.12928342766374
O          -1.79586527503140    1.82575099054255   -0.67715994648225
H          -2.45237317533820    2.42523990851110   -1.03348789280648
O          -0.80350013269561   -2.78046853732990   -0.09103410236662
H           0.12398097134214   -2.45640957776750   -0.01755535333166
H          -0.76450968418672   -3.58947163761615   -0.60275758816074
O          -0.93506947140257   -0.57238601899119   -1.70739904817739
H           0.67350639514545   -0.37585716984210   -1.71772123820462
H          -1.11554274310301   -1.34100022943520   -1.13945406819617
H          -1.37506739320244    0.19952161865270   -1.31107020055503
O          -0.73818563300070    1.48891577418207    1.81252686786268
H           0.17104813329995    1.52368526226602    1.44987353908162
H          -1.30306891613446    1.66747069776820    1.03766190426336
H          -0.61875566306756   -0.00992868439637    2.06679028931289
O           0.63159704821673    2.46897244213089   -1.42773729976143
H           1.06095797211055    1.96829607335463   -0.69311216985863
H           0.93959333291074    2.03893212193255   -2.22967912510328
H          -0.90999157520915    2.16016991480331   -0.99398495346168
N          -0.33388054981473   -1.05231090799698    2.12978482127514
H           0.51987975627270   -1.18250451548252    1.45923646344139
H          -1.06438030163808   -1.66961421474723    1.77545603388099
H          -0.07658573305085   -1.30215178653633    3.07853886525422
