    26
        -50.45763561  Gyration_radius:  2.42182526683 Dipole_moment: 7.920
 S           1.83640782317881    0.59454303764114   -0.87065161630444
O           1.89517775630587    0.77995025126747    0.60711003279965
O           1.15432816327135   -0.68257118947987   -1.12730917750765
O           0.87335604494330    1.71792798143236   -1.39231233701032
O           3.09016200709068    0.74524762077916   -1.51873723757507
O          -2.39950964441664   -0.76105949000457   -0.82487767304821
H          -3.29622939398940   -0.91205902242538   -1.12565012628718
O           0.15500418900753    1.57798890556073    2.42284289003153
H           0.88522257591240    1.45714637076978    1.77258627711550
H           0.25363500624283    2.46374993494775    2.77436792168055
O          -0.77961574814063   -0.20153908210905   -2.80795611834822
H           0.03121448897216   -0.44198367300656   -2.29860511942491
H          -1.85640502387563   -0.58040358883011   -1.64303182914747
H          -0.67814517527326    0.73380168616976   -3.00223405297101
O          -1.27572569921289    1.57551442020493    0.08652205766205
H          -0.97231245668638    1.54132961128406    1.00992707177977
H           0.05529380289655    1.68879660822584   -0.83095582422651
H          -1.75444386589810    0.74923161265616   -0.09949306857131
O          -0.43102490512083   -2.41999854909999    0.07184824892184
H           0.21061738305016   -2.02522195801700   -0.55415801713886
H           0.24761980665361   -1.73750636867557    1.25472365142172
H          -1.27203506056368   -1.97867634043577   -0.15020630250844
N           0.85178737889269   -1.14405369812698    1.92886633806798
H           1.51407901693015   -1.72552160399984    2.43088714812990
H           0.28012315696796   -0.60071750804352    2.57557112383658
H           1.38141837286150   -0.41391595868388    1.31092574862238
