    26
        -50.45763561  Gyration_radius:  2.42182472787 Dipole_moment: 7.920
 S           1.09591344264795   -0.14461403490454    1.80609505605006
O           0.31935949830640   -1.23608881181552    1.19965151604810
O           1.69550591365856   -0.45716880041844    3.05406326540825
O           2.23517475787257    0.20231459382885    0.78466590541655
O           0.21883666212416    1.05994835270713    1.84318537927673
O          -0.07397778447975   -1.22782031306349   -2.34611964403694
H          -0.00980563514860   -1.58984505501037   -3.23053671852103
O          -0.51022535691799    2.84985726728673    0.04690166163035
H          -0.12540062269102    2.32655568515002    0.78766006613126
H          -0.10427479506883    3.71646433447446    0.09236798193940
O          -1.82325676123602   -1.62395366397773   -0.29325541780041
H          -1.08364573950944   -1.78051557414710    0.32955958617763
H          -2.11434465954706   -0.26598501611527    0.33663197152616
H          -1.38072844608580   -1.52067636558415   -1.15631617543637
O           1.03913763438401    1.08502373819944   -1.36384769046086
H           0.39172760548989    1.74683133926183   -1.06589365408147
H           1.79920032170007    0.55434903998187   -0.03459745025096
H           0.54904968383946    0.36265666553112   -1.79340080239697
O           1.75191856855042   -2.21526654481410   -0.74587783876744
H           1.25712221218031   -1.97333092024106    0.07347687174147
H           0.63832503547228   -1.67514026795778   -1.80806404630692
H           2.56849443210806   -1.71163019535123   -0.69631158935883
N          -2.12379916563874    0.65762564236885    0.90101166476058
H          -1.15011824585417    0.73160143254498    1.39287958887969
H          -2.86672856906739    0.65411818072984    1.59152090358442
H          -2.19345999708916    1.47468931133777    0.29454961884375
