    26
        -50.45011625  Gyration_radius:  2.4525870275 Dipole_moment: 5.255
 S           1.93436933192076    0.71539381244350    0.47160600972950
O           1.81837812674147    0.65269376198570   -1.08102770715656
O           3.19043541254280    1.26582693389225    0.81849722287918
O           0.75277490791418    1.37730984595112    0.98243476493238
O           1.88711103788935   -0.76881916493465    0.87826151424658
O          -0.89533758627218   -1.78479761408890   -1.56466284717516
H          -1.35268669590951   -2.42215990018314   -2.11460287305954
O          -1.46330062641793    2.46272571055577    0.01085633294418
H          -0.65323269834162    2.13589156212951    0.45713830427913
H          -1.31396034446655    3.39237478126399   -0.16921228402233
O          -0.53946186317969    0.88766588099373   -1.94691577767949
H          -1.04529100711467    1.44182464578048   -1.31413727710354
H           0.85913920571248    0.80811805286583   -1.42809188827305
H          -0.86541039728815   -0.02675765054231   -1.86052304229257
O           1.74165142831694   -2.05187233174194   -1.64931649031214
H           2.04319633139866   -2.35875477850724   -0.78820620208430
H           0.07430083311968   -1.96170992066948   -1.67534498325182
H           1.99831322308734   -1.11677825558790   -1.68869552188952
O          -0.45156981867077   -1.62172256960796    1.13993725829976
H          -0.98135961112005   -0.91635576731804    1.60653244074261
H          -0.80254077563705   -1.69613994931500    0.23622775312517
H           0.91079355500301   -1.10660878900296    1.02406032321075
N          -1.67127165087836    0.41987863936396    2.32490655661170
H          -0.80656008450740    0.95247870683167    2.33750437184428
H          -2.04907813003399    0.39818791097722    3.26299343222028
H          -2.31940211380841    0.92210646646449    1.72978059923401
