    26
        -50.45763560  Gyration_radius:  2.42182664989 Dipole_moment: 7.920
 S          -0.60933132797810    1.70491182705641    1.09815191157747
O          -1.37071169097433    1.92568630642919   -0.25579494586611
O          -0.86598887629549    0.31134502320896    1.49084747822701
O           0.83805849313245    1.81370652572025    0.75927564026572
O          -1.05693457888330    2.68123927958694    2.02608237733532
O          -1.13509616719245   -2.12509538760250   -1.10115551035479
H          -1.56295825755888   -2.82034118934945   -1.60208570103404
O           2.27690467587701    1.16699025015921   -1.35579031583236
H           1.76522141297743    1.59274570178435   -0.62945522570563
H           2.56505858941020    1.87643580831312   -1.93157268884448
O          -0.25121581108318    0.32156824655229   -1.98766675573352
H           0.70864664405193    0.45519427722730   -1.90572114367174
H          -0.44287116563088   -0.60404025469373   -1.75739477831769
H          -0.94820956636079    1.33381871080942   -0.93134980324500
O           0.20166219247094   -2.09347510064888    1.27433341814500
H          -0.34317604531568   -1.34348163230020    1.59071750857312
H          -0.18895523042471   -2.31369603379488    0.40813345783176
H           1.41783825852178   -1.18829115938929    1.11010609232617
O          -2.87046916832288   -0.53875869777089    0.05714853096426
H          -1.86708898200443   -1.59129210566157   -0.68137107559303
H          -2.21891310000211   -0.20219675021026    0.71813367809505
H          -3.12259362427908    0.23479594804390   -0.45368514440377
N           2.12910808984132   -0.37537148309404    1.03971109724607
H           2.77785568637183   -0.39142414680298    1.81921605516530
H           1.54634441120697    0.54968317405104    1.05113855240100
H           2.62781513844139   -0.38065715762186    0.15004727044704
