    26
        -50.47249758  Gyration_radius:  2.40809755538 Dipole_moment: 3.014
 S           0.11520299309970    1.27377018066486    0.59407530919946
O          -1.27135172473019    1.26396969812398    0.18780983429014
O           0.57131893915435    2.76204778030286    0.62706852699616
O           0.30706158243885    0.70525139559532    1.93271295378011
O           0.97567967455774    0.56620286069436   -0.35565422965984
O          -2.20946359114330   -1.24368009672544   -0.15902276847648
H          -1.21187468339659   -1.70721153408546    0.91511473791305
H          -2.20352213573997   -0.28671006647277    0.02186847042515
O           1.59515125969075   -2.02987289470854   -0.23690717599467
H           1.55663345597094   -1.05210777153503   -0.28795757016331
H           1.24909426427646   -2.32805403529712   -1.08407385765013
O          -1.67756742099380    1.53761440918258   -2.47566945267743
H          -2.05652624161923    2.39314647937980   -2.67950478408494
H          -1.55444641793194    1.51707426879029   -1.50866802892867
O          -0.45210966645032   -0.90881150317225   -2.13690928638263
H          -0.94306476246096   -0.29400120486191   -2.69718145256088
H           0.10174432668981   -0.32001997365375   -1.58999306642113
H          -1.69294368710715   -1.31296782300222   -0.99726548221581
O           2.78338736871361    1.65010198898141    1.52695611664864
H           2.96473593775287    1.13494564579299    0.73485671744112
H           1.49411331351620    2.69857906296367    0.94540090521269
H           2.07698724682825    1.17552631080888    1.99517607315650
N          -0.34871871512832   -1.80967100898334    1.55770141520777
H          -0.11187194248260   -0.83048557347928    1.87643516051829
H           0.45498899598143   -2.12263191482770    0.95246016463958
H          -0.51263834948890   -2.43200470046755    2.34117078979237
