    26
        -50.45300976  Gyration_radius:  2.4348530688 Dipole_moment: 5.195
 S           1.21477847278892    0.20881875020088    1.69375523022315
O          -0.32892316640395    0.24646095639134    1.75963751040313
O           1.76286755778978    0.40748472767222    2.98234982484194
O           1.54532541526982   -1.20284627656056    1.18291011782226
O           1.63105070750123    1.15933970218440    0.67343331066876
O           0.07599964250153   -0.46682158572091   -2.27556807648908
H           0.03167622867642   -0.35525039898993   -3.22588807807731
O           0.25238684981851    3.21523491909701   -0.34074318071407
H           0.91389381894472    2.57713556328876   -0.00925576372715
H           0.19808139306541    3.91190227668847    0.31496347616299
O          -1.28085404356920    1.03482620951145   -0.45902220804400
H          -0.85007779832335    0.52143599257133   -1.17178388633453
H          -0.72011228867471    0.55154880359381    0.86200958166760
H          -0.88836075409212    1.93316589319739   -0.51379398961747
O           2.52538255221101   -0.25275809857684   -1.36956698873485
H           2.80130974139371   -1.06148450543988   -0.93018081123620
H           1.03311544622914   -0.36216979656400   -2.02225437335300
H           2.32431646773775    0.37710896386759   -0.64568873935797
O          -0.30049078152705   -2.20188430476364   -0.18421291495211
H           0.77020280559959   -1.63716403275981    0.63751416269055
H          -1.18189661767077   -1.96840714134689    0.21951071192318
H          -0.26483188369372   -1.74224069671008   -1.03940279564486
N          -2.62206392340091   -1.36799072514062    0.84809670452124
H          -2.35185516273445   -1.07870030857434    1.78043362704232
H          -3.46755490916215   -1.91979177820682    0.91318994763841
H          -2.82336576027499   -0.52695308890986    0.31955761067704
