    26
        -50.45011623  Gyration_radius:  2.45259606185 Dipole_moment: 5.255
 S           1.73095470231486    0.86054748259446    0.85996674486199
O           2.83619439455380    1.49100739441304    1.47801083292787
O           1.75080253371603    1.18027421919445   -0.66498631963784
O           1.91954428395349   -0.66714727269539    0.89148366597688
O           0.41306163597411    1.17887006819706    1.36698370527566
O          -0.43380325145859   -1.43987577135193   -2.04308125198292
H          -0.72439794367936   -1.97745676058307   -2.78088292293939
O          -1.87868558460494    2.12119395349788    0.42210131760300
H          -1.06076482827084    1.82004575788943    0.87208163708403
H          -1.88523581045651    3.07747125223760    0.48911889720686
O          -0.53520663703527    1.26299187970643   -1.72867365023817
H          -0.69713265179406    0.31801089989761   -1.90381205729651
H          -1.18074693632217    1.55126926690924   -1.04784767890855
H           0.80959751343403    1.26984823976955   -1.07836198052500
O           2.20656533899522   -1.26662082522823   -1.86810201022211
H           2.29308975507622   -0.32474294034023   -1.65080935273911
H           2.48959582282027   -1.73398419881351   -1.07559902569563
H           0.55751291724004   -1.43096317259844   -2.07423601011802
O          -0.24074702687808   -1.90921892476271    0.65528626910560
H          -0.92391919314150   -1.43774941402787    1.20931964649710
H          -0.50031450899355   -1.80260984687223   -0.27568213574841
H           1.01158162155304   -1.17767893015668    0.83241262820492
N          -1.89729849324418   -0.45355998084801    2.13745940141119
H          -2.33733016055520   -0.77299754802239    2.99040868150380
H          -2.57659607951666    0.07788159902429    1.60588278197738
H          -1.14632142368082    0.18519359296836    2.38155819641403
