    26
        -50.45011625  Gyration_radius:  2.45259133495 Dipole_moment: 5.255
 S           1.67929215205270    1.27239060913608   -0.19283311389918
O           0.66896599390915    1.64793414796727   -1.31815399852931
O           2.13219546828162   -0.14220012307489   -0.59812909154140
O           2.77972333913896    2.15965953383186   -0.24582890882592
O           0.94958792633770    1.18957644937645    1.05452106417180
O          -1.34262960412773   -1.41811337661333   -1.61928113572000
H          -1.92472454801327   -1.98436338718879   -2.12755227832371
O          -1.54850562549026    1.49430450327677    1.89118028846674
H          -0.59238529096326    1.41467963022838    1.68708388308453
H          -1.69360073586104    2.40728915145088    2.14495813578569
O          -1.73583452155533    1.13399549188486   -0.75508466562983
H          -1.78782149330956    0.18940751724881   -0.98943144246661
H          -1.84512611255919    1.20268098471721    0.21789910080171
H          -0.31618251641711    1.48852804208847   -1.05583502287759
O           0.71725925644889   -0.52300952835885   -3.02911312420330
H           1.52008524748621   -0.92529193401117   -2.68234450556025
H          -0.61979415939067   -1.13182840949073   -2.23516014172989
H           0.73984767466669    0.39586457183287   -2.71763035355254
O           0.59779070604797   -1.92606068651247    0.25555572404114
H           1.51047810393009   -0.88254192799659   -0.20583595098598
H           0.34517035981811   -1.68679308047605    1.19090898172194
H          -0.20605501744206   -1.85771371719752   -0.28719727458000
N           0.01338224926466   -1.05211792358563    2.69573647949710
H          -0.93411716746220   -0.70918162525308    2.80130516967266
H           0.61004017362620   -0.24025971287330    2.56743100344521
H           0.28295814158312   -1.51683518040753    3.55283114773765
