    26
        -50.45011624  Gyration_radius:  2.45258691406 Dipole_moment: 5.256
 S          -1.25006156796730    1.62825671738425    0.51214868063070
O          -1.10858263065690    1.20501908947434   -0.86484528314588
O           0.14681083141637    1.93008650113099    1.08497325785096
O          -2.11832100275499    2.71395192528635    0.77379744026810
O          -1.70900248941751    0.39716625061124    1.34994884526169
O           1.29674638832622   -1.72491571888586    1.33365249552761
H           1.82193840993545   -2.42625062487521    1.72110133304853
O          -1.41055269590798   -1.02066491421356   -2.27483510726100
H          -1.32510047421659   -0.14076599884015   -1.84977936229294
H          -2.30971572959339   -1.07399174577012   -2.60291842756809
O           0.35948633841772   -0.02039446141408    3.13599176358609
H           0.79588855829534    0.82788805476332    3.00725103417204
H          -0.53919237365397    0.10251465669223    2.79085927265747
H           0.98872573439494   -1.15564250679378    2.08519686456179
O          -1.20779732442325   -1.82695674340654    0.26993767241443
H          -0.27955238070244   -1.96155465711006    0.53472176480312
H          -1.55280668361409   -0.50500421969786    0.87411361390239
H          -1.22178063128854   -1.70574080010733   -0.70395915773273
O           1.94837740651346    0.57978743454778   -0.00880749295521
H           1.83390052912977   -0.32524678275129    0.32769159314656
H           1.75897778968622    0.55800319670081   -0.98841812638716
H           0.89699491258140    1.39316944518562    0.59764388281553
N           1.20661828593617    0.60386223826810   -2.56007409704981
H           0.85259706910511   -0.28214038866299   -2.90082547401424
H           1.72529073034779    1.04932926689419   -3.30555473944128
H           0.40011299010849    1.18023480558948   -2.33901222679907
