    26
        -50.47249863  Gyration_radius:  2.4081615654 Dipole_moment: 3.034
 S           0.24643125913610    0.90052570844374    1.05832294599328
O          -0.27598148809205   -0.24794339792584    1.76260422305911
O          -0.06826481347243    2.15223364306171    1.92891608110482
O           1.69942614639787    0.82520803900618    0.87147543718857
O          -0.39564059318026    1.09105826149361   -0.24344005308517
O           0.46120127036745    0.05123451933325   -2.55081824432451
H          -0.30729443590177   -0.47194456282320   -2.79991750881712
H           0.15148855539650    0.59775525874224   -1.79887140305801
O          -0.03983235249215   -2.51807389601992    0.32090195363847
H           1.21009793670256   -1.90777686171022   -0.33432598824494
H          -0.11716358261090   -1.92896616070983    1.09260206224637
O          -2.94280679503019   -0.63538649927372    1.49811718913171
H          -3.39626041945737   -0.47768014225008    2.32666214790184
H          -1.99772679549280   -0.46593153599518    1.66804478822544
O          -1.85556144149926   -1.07527596673475   -0.99596639958393
H          -1.43226350769622   -0.23699060671824   -0.73035126087261
H          -0.77576955254584   -2.21483385706109   -0.26276196882683
H          -2.60216385578951   -1.14903307180841   -0.38753891534983
O           1.29865121174135    3.33475261614969    0.01294385663499
H           0.68837730867491    3.10311172864648   -0.69397425246731
H           0.34223191991725    2.87888515594788    1.41856587670766
H           1.80852640578752    2.52879086725899    0.19639516092601
N           1.93746009746247   -1.22548236260611   -0.75121554943272
H           2.00871211595023   -0.42760455477442   -0.06210377554500
H           1.51674730285914   -0.81849284311893   -1.62728122097339
H           2.83737811285087   -1.66213948856224   -0.91698521218136
