    26
        -50.45011625  Gyration_radius:  2.45258075984 Dipole_moment: 5.255
 S           1.89792510616270    0.90775592832203    0.22194837791881
O           0.80830497783279    1.23598883130894    1.11646363100820
O           2.11817476273881   -0.61586082175721    0.24557988032355
O           1.41729826020765    1.16532086333280   -1.23777369537162
O           3.13026658874358    1.57166160234319    0.42575678566398
O          -1.04128088738284   -1.52459035787960   -1.73999141327890
H          -1.54358617903482   -2.09400730613913   -2.32417971838004
O          -1.68429442990388    2.12189080026002    0.93102542498417
H          -0.75894199792588    1.84530708720848    1.10256109074202
H          -1.68806463713586    3.08002760388714    0.96173390088320
O          -1.09087483062317    1.18790648864259   -1.50678957014494
H          -1.48744747058469    1.49852932738038   -0.66439365001409
H           0.39136902690284    1.23119836830804   -1.32728039085166
H          -1.28156533939605    0.23543043913452   -1.58620779783507
O           1.51001578382941   -1.32446615235300   -2.43508061616827
H           1.64282771008664   -0.37395933584632   -2.29099902812139
H           2.04349103407029   -1.75753325758175   -1.76096065999265
H          -0.11359941538975   -1.50932072429317   -2.09053633790474
O           0.02263247009222   -1.88225046576476    0.76578936315465
H          -0.52600402584557   -1.81532995733918   -0.03417862950294
H           1.25021109547311   -1.13500948462536    0.50167397784529
H          -0.45408456345051   -1.39394060819293    1.49394475398377
N          -1.09490759775674   -0.38104646191347    2.65204456014957
H          -1.91982617478893    0.12369476948361    2.35007880024698
H          -0.31821458995734    0.27246010222579    2.61774860687463
H          -1.22982466696442   -0.66985728815089    3.61202234378621
