    26
        -50.45011624  Gyration_radius:  2.45259518843 Dipole_moment: 5.254
 S           1.56417108748097   -1.30890002589860    0.56222923967465
O           2.08533753190612   -0.42444867282370   -0.61003903059566
O           0.47616241784640   -2.16426546364813   -0.11235053078427
O           2.61451491207299   -2.14174148624556    1.01413051953038
O           0.93789964041368   -0.43907680467313    1.53508242417451
O          -1.04017686000192    0.66801373859548   -2.21526210692386
H          -1.50959828990763    1.00030581346283   -2.98144640970947
O           0.46357759370634    2.15319954404482    1.83244557807759
H           0.64148351984777    1.18857725578161    1.83730361902850
H           1.19685802158650    2.56364125772639    2.29379008585267
O          -1.74991780005220   -1.02118653915164   -0.17044307630262
H          -1.66407549829896   -0.32122750377814   -0.83983589039907
H          -0.45724566750004   -1.69834649549322   -0.09759945921147
H          -1.88398859663011   -0.57330308968104    0.71124366323521
O           0.96084028041876    1.82758444324856   -0.77794327215460
H           0.15395771514278    1.60018342348170   -1.27504159153543
H           0.68448032014427    2.10108796935133    0.12327567709758
H           1.66157483051274    0.51605618175033   -0.63487466547521
O           0.64769252682049   -1.28980617293567   -2.80713974415795
H           1.39974965842353   -1.02885054962592   -2.25202647642338
H           0.31717013782932   -2.10443953348069   -2.41505906060586
H          -0.43400869076359   -0.04502790283787   -2.54369810424824
N          -1.85394069837511    0.13965929408877    2.21731262997697
H          -1.75475252227236    1.14772890653409    2.19701581787664
H          -0.94563131996462   -0.24283430320377    2.46271098798652
H          -2.51213425038588   -0.10258326458715    2.94621916601458
