    26
        -50.45011623  Gyration_radius:  2.45255393168 Dipole_moment: 5.255
 S           1.95886274986581    0.73323626904723    0.31805835211347
O           1.71713851391168    0.67956077874767   -1.22037366530306
O           0.81601628310963    1.37850903369014    0.92858857399081
O           1.96061852548770   -0.75411682341718    0.71590516373513
O           3.23318266475582    1.29527951792689    0.56552474213026
O          -1.00132810580532   -1.78319463737788   -1.50076599161400
H          -1.49530086487511   -2.42139727749119   -2.01705327271342
O          -1.48284842730566    2.44603713338892    0.14895987005323
H          -0.63583438525945    2.12492204820366    0.52531912147322
H          -1.35832646557907    3.37858515218008   -0.03503503387216
O          -0.70540775064618    0.89535892656107   -1.89008543506154
H          -1.01369443169793   -0.02317999433800   -1.78446001901704
H          -1.16375170480862    1.43949510361607   -1.21391401860742
H           0.73126779315424    0.82734296626351   -1.48714703746979
O           1.62260573712944   -2.02148645701361   -1.80102771796675
H          -0.04211954707935   -1.94897530574516   -1.69097152307798
H           1.86541937135036   -1.08329850478400   -1.85311469966128
H           1.99644718903636   -2.33167095370341   -0.96999721197791
O          -0.34027920073923   -1.63409899158350    1.16005549188380
H           1.00298142059619   -1.10349389530240    0.93790285834603
H          -0.83754107189909   -0.93791300330557    1.67381623271493
H          -0.76298289217163   -1.70596394465779    0.28737688107875
N          -1.48066078933047    0.38544991811312    2.45669804990572
H          -1.78085662694164    0.35283110589545    3.42210969714186
H          -2.18017273559550    0.88465273295492    1.92011447137972
H          -0.62343524866413    0.92752913213046    2.40351611039402
