    26
        -50.45011622  Gyration_radius:  2.4525575909 Dipole_moment: 5.255
 S          -1.00095451554240    1.61876153220017    0.92389220659736
O          -0.46059671961097    1.74521842042662   -0.41297884086032
O          -1.64026209151770    2.75255160807613    1.47779025949716
O          -1.95744687689807    0.41285427414473    0.96093847125186
O           0.15398149300229    1.17347484122954    1.87043316706971
O           0.76771497176422   -2.28711793067776    0.78386495297524
H           1.10625964169661   -3.16606475328955    0.95901299221829
O           1.87854965624230    1.43026906812173   -1.62196009703288
H           0.98974181006888    1.62495801695600   -1.25551100717971
H           2.36187584793926    2.25802825513869   -1.60776799449588
O           2.09694737326100    0.08715149932612    0.68350006898800
H           1.77875614097240   -0.83027132824728    0.59978990156152
H           2.15323178837942    0.46315425302422   -0.22139397104818
H           0.96846704038585    0.78409817075225    1.37044543671623
O          -0.64482881376465   -1.30378087247960    2.80120497245334
H           0.26944726962382   -2.01033084435434    1.59558071040124
H          -0.31621457822810   -0.39062264294357    2.79881531069340
H          -1.56484249005492   -1.24010986783847    2.52536433377049
O          -1.34367177832180   -1.35376417228664   -0.70280690252316
H          -1.71931647410365   -0.30108650166740    0.23845185204302
H          -1.08480463893452   -0.89527831033064   -1.55055656053954
H          -0.54372787105193   -1.77733667292358   -0.34769975451549
N          -0.63525670965739    0.08378118951762   -2.82221292422998
H          -0.84070955511018    0.94700122172331   -2.32810879418791
H          -1.13177708597542    0.09190708112719   -3.70345168961555
H           0.35943718543550    0.08255446527537   -3.01463607000688
