    26
        -50.45011627  Gyration_radius:  2.45260330933 Dipole_moment: 5.255
 S           1.90274767450410   -0.59683700282024    0.70635661556103
O           2.09582576092243    0.01854470875102   -0.71214954850903
O           3.16906213546735   -0.93347450676340    1.23938873323403
O           1.07402815642579    0.30582586450800    1.47681887004437
O           1.10298723636788   -1.88011684470397    0.41642330660835
O          -1.26195321542997   -0.32250270976963   -2.17717376617399
H          -1.83350260046407   -0.37220011588920   -2.94443636319589
O          -0.15021515805462    2.63162068672738    1.12274466965288
H           0.43948347668286    3.34623827092861    1.36884069804697
H           0.31010559815227    1.80001545034782    1.36501263658554
O          -1.36469924417859   -1.47341566344775    0.31346573709548
H          -1.51494399320007   -1.00294740640890   -0.52409430507606
H           0.07354414143187   -1.71048673522640    0.41414996762371
H          -1.59975146920973   -0.84539924240957    1.05258608974017
O           0.34005421853204    1.71593314216184   -1.34483129461397
H           1.40770096460395    0.75343185226717   -0.93838938042466
H          -0.37580848174619    1.13779306843654   -1.66599878676579
H           0.02242910722927    2.15005658426957   -0.52385105844739
O           0.91833215225292   -1.81318659171794   -2.41527054698555
H           0.86114758382372   -2.53773588808720   -1.78411716080802
H          -0.47954576425791   -0.90045417761637   -2.37085116664823
H           1.57358712194520   -1.20282326665209   -2.04116884408726
N          -1.73935946436930    0.25178242852564    2.29924801275061
H          -0.75091062553096    0.22697594270312    2.53134930982121
H          -2.27128324886563    0.05705365506967    3.13728853733994
H          -1.94906208303477    1.19630849681674    1.99865903763268
