    26
        -50.47250031  Gyration_radius:  2.40916121992 Dipole_moment: 3.084
 S           0.97540823835460    1.01566788752308    0.13880395207594
O           1.70367845437443    2.16241056622809    0.89893894058664
O           0.02577445100915    1.63610760325848   -0.75638767617818
O           1.98427564429527    0.22858607571727   -0.57878635284414
O           0.32251558851777    0.16485144712747    1.13515879695157
O          -2.30420082396054    2.42989622230341    0.37353922089493
H          -1.43925298669524    2.22361724027655   -0.02658485179269
H          -2.40689824048983    3.38029231334849    0.31393591479045
O          -0.17493369714869   -2.44412472146602    0.84766670652724
H          -1.13313275837621   -2.44793663222967    0.93804996303563
H           0.09200301689755   -1.53982513368924    1.11443242309256
O          -1.50643516383167   -0.18969355479167   -2.02361018896158
H          -0.33112006658432   -1.17650887806592   -1.92387399615110
H          -1.03110357765600    0.64164649824366   -1.84557269078235
O           3.04576954448346    0.11957252800390    1.88155203312052
H           2.35040055191698    1.67851370647024    1.45074222520291
H           2.28836268455454   -0.29921722516700    2.30193674452787
H           2.97018674754803   -0.08599554072877    0.93533030306428
O          -2.28228971402975   -0.32034327536974    0.52426239932161
H          -1.38789417322051   -0.09606478001267    0.84375000701556
H          -2.75915311550135    0.51693334486664    0.59389342506961
H          -2.00506070809837   -0.34238896963702   -1.18551222914541
N           0.54770480579830   -1.71633808839250   -1.60088407272539
H           1.24412777374023   -0.97718551320652   -1.30854384643915
H           0.92280834545247   -2.32510006588429   -2.31966647481410
H           0.28845916867310   -2.23737306472876   -0.72257066542894
