    26
        -50.45300979  Gyration_radius:  2.43483042068 Dipole_moment: 5.195
 S           0.32187658480634    0.87131430579658    1.87762190787204
O          -1.01064742574258    1.48458576205213    1.41788113618532
O           0.55290074897033    1.16105535814179    3.24255049910347
O           0.13787877985111   -0.65044056173540    1.67973100870470
O           1.35556423833963    1.30974847305708    0.95180566100928
O          -0.37478656988195    0.52176158369891   -2.23354381743677
H          -0.23886375995536    0.62111404402773   -3.17652900726634
O           3.22817197311978   -0.16402881396671   -0.26365192785455
H           3.88753380819080   -0.42791503061082    0.37969118519458
H           2.67943074230274    0.51836947197595    0.16977336316129
O          -2.21483517838075    0.05804462217890   -0.25213641254172
H          -1.72644794617428    0.16877281386583   -1.08465596119326
H          -2.12229169593068   -0.90291576570640   -0.00225697661109
H          -1.53200535433496    0.88289833147722    0.74488531443276
O           0.15364811171826    2.72796256239213   -0.92221211886165
H          -0.14410484635513    1.39759897362447   -1.82017681663356
H          -0.62218021079475    3.04103348879473   -0.44962946768653
H           0.72410410336235    2.31961988926071   -0.23738788187407
O           0.85796880769340   -1.32298611524428   -0.66106253477296
H           0.41482761973532   -0.92640848909051    0.73156612792705
H           0.43486633968338   -0.70929604335149   -1.29473061814013
H           1.80413636581799   -1.06147748671744   -0.64013150917768
N          -1.75337724048004   -2.49964577889942    0.37694390900990
H          -1.46043434184191   -2.43438056142324    1.34434312717120
H          -0.93186172075030   -2.72944556594034   -0.17034656156899
H          -2.42107194296763   -3.25493947765985    0.29165834184590
