    26
        -50.45011626  Gyration_radius:  2.45256994408 Dipole_moment: 5.255
 S           1.86435467769575   -0.16139526136256    0.98673454029172
O           1.12325578575566   -1.49458830170940    1.19625166283142
O           2.13905572405815   -0.15550180114411   -0.54706874505224
O           0.95860541525070    0.92797677960321    1.28349258713749
O           3.09913319543460   -0.18786467548219    1.67638674228155
O          -1.09627587575936   -1.23337826828219   -1.92686179770183
H          -1.61088953954560   -1.61628953672625   -2.63846359045197
O          -0.30215271110596    2.84813286685052   -0.04156052717778
H           0.24850594425125    3.63222061620369   -0.07264876395694
H           0.16298445666333    2.20878281088552    0.53903713105098
O          -1.34148764604645   -1.29565796526644    0.80718706357198
H          -1.44557753281854   -1.20812454220586   -0.15557772465580
H           0.09228975888965   -1.39541322981126    1.07119200447551
H          -1.64528686729931   -0.43812360337390    1.21739628381403
O           0.38607980874910    1.05047009473438   -1.90218517912688
H           1.44856214013092    0.38970511036219   -1.08643081777389
H          -0.28908702350900    0.35455255480286   -2.00093995049393
H          -0.00047132577242    1.75886141639519   -1.34347983406972
O           1.13565908957206   -2.57586406879576   -1.42826023303227
H          -0.28656528942080   -1.79780822151898   -1.82947393734176
H           1.74567284257243   -1.83252440194020   -1.29709068298465
H           1.05443016997450   -2.98964684388673   -0.56294096254120
N          -1.90305919582714    1.05678380278948    1.90770224143897
H          -0.93334187086963    1.18001151490422    2.18334229605511
H          -2.48779853747611    1.18531811356070    2.72302692656622
H          -2.11659558354700    1.78936504041345    1.24123324684520
