    26
        -50.46954174  Gyration_radius:  2.39867485655 Dipole_moment: 4.981
 S           1.17726902719474   -1.06996351708423    0.01509994336549
O           0.19275551339736   -1.01869253737592    1.11640223259662
O           0.65535905330317   -0.36004617474657   -1.15491834444877
O           2.41286497079208   -0.26827723641388    0.53047717306524
O           1.56235345177310   -2.42105170571607   -0.28645872820204
O          -0.38936406468283    2.69153737213547    0.73320478292860
H          -0.60224718668216    3.54835176355610    1.10520095361155
O          -1.64914182328583    0.95098874139170   -1.06600437984807
H          -0.78234496590562    0.53706755640287   -1.26414512867641
H          -1.43429893913849    1.65084647277213   -0.42974651757433
O          -0.56901970417710   -2.85804928787394   -1.77740025958583
H          -1.65425893115390   -2.09025530835825   -0.82919008602695
H          -0.34934346774409   -2.28078404174126   -2.51367437442492
H           0.24908418915724   -2.87139117832287   -1.22815097256154
O           0.68061767558441    1.11410642223287    2.55639639943199
H           0.46684745950966    0.25607945500995    2.12450223792243
H           1.63962108673765    1.14344398422902    2.59325182489954
H          -0.05623834608392    2.13347478441876    1.48156507372872
O           1.85809692020404    1.95379799140553   -0.69059293935740
H           1.44037092603260    1.31739659861813   -1.29253120266108
H           1.11595556304116    2.39040205631659   -0.23300290881243
H           2.34090103619401    0.64093197251475    0.12693035148014
N          -2.04134450734232   -1.44984338366879   -0.08159311572183
H          -2.17230720171294   -0.48118333637375   -0.48754527434207
H          -1.21979227775401   -1.33742972449248    0.58809519409666
H          -2.87239545722870   -1.82145777882177    0.36382805511689
