    26
        -50.46954165  Gyration_radius:  2.39856790668 Dipole_moment: 4.982
 S           0.88177979942399    1.20319458111132    0.55360405914103
O           1.25878428929081   -0.19777301710971    0.83588003754664
O          -0.51848111032484    1.26788504999920    0.12871884172807
O           1.15799903440849    2.06003171750859    1.67349712534535
O           1.75661772310065    1.62632162055691   -0.66745370929464
O          -0.24489590422896   -1.49296708166141   -2.37544273170974
H          -0.25632698605563   -2.11740319849928   -3.10191036680279
O          -1.96007077459713   -0.92980099787321   -0.23271759377443
H          -1.57195378683780   -0.03163772455040   -0.16493116474334
H          -1.49357760801252   -1.33017750381004   -0.98303684521853
O          -0.06402934749503    1.26020466368075   -2.48049006050039
H          -0.17987664136101    0.30284620958091   -2.62480631832313
H          -0.62260847257273    1.46622822797650   -1.71400729913720
H           1.17105332983893    1.54083039751697   -1.47029804157705
O          -1.07085124487799    1.40297055874043    2.92124283253900
H          -1.69665640236377    1.82635006288336    2.32726469696043
H          -1.04254039336916   -0.19367024839258    2.58180013408633
H          -0.19096094296687    1.72060001205634    2.61140680386201
O           2.18312512347196   -1.26148560277777   -1.37184758938809
H           2.70628412301344   -0.55490409838534   -1.75778800917925
H           1.92293590850562   -0.93126413267409   -0.48206384245833
H           0.67516074041003   -1.50501422425408   -2.00684465349089
N          -0.78482337573093   -1.10333268926407    2.10729187970315
H          -1.41683053079426   -1.25036891961301    1.27110254959436
H          -0.76461880397156   -1.88926645370854    2.74688578889168
H           0.16536223408957   -0.88839719905169    1.67494346619003
