    26
        -50.47249789  Gyration_radius:  2.4082327476 Dipole_moment: 3.020
 S           0.24518183245584   -0.14482791615272    1.38183360136303
O           1.33297060646235   -1.10247029001424    1.15520438705622
O           0.65909904064113    1.22004267316633    1.15023648571544
O          -0.90547279448008   -0.52176507641441    0.55902198039540
O          -0.18791752119397   -0.24413366954397    2.87401645468168
O           1.24238189493730    1.67852124014158   -1.44525169935849
H           1.65964606890592    0.20333563617551   -1.55593875574875
H           1.25017850876111    1.77287811844076   -0.47588999289480
O          -0.76599302126886   -1.62140957027185   -1.87185746793393
H          -1.23880148799363   -0.96009607149773   -2.38711756727091
H          -0.92835903775519   -1.36662473238694   -0.93973300072141
O          -1.36448447577162    2.97773086413526    0.76245252785708
H          -0.62616146998460    2.37792532016271    0.97644579249844
H          -1.44764651313984    3.57575684089753    1.50581621764533
O          -0.47971160989378   -2.77572189333488    2.20757005829526
H          -0.41406245955860   -1.19100000877412    2.97031549786071
H          -1.15900021108915   -2.62260653299754    1.54358211787561
H           0.35989241012948   -2.52201046533245    1.79045137062164
O          -1.39538434962928    1.28510209129570   -1.41241642906650
H           0.27868081759069    1.66078974069682   -1.65753593087047
H          -1.32734809145205    0.66116351049115   -0.66508940112311
H          -1.68179614076709    2.10566098304891   -0.99088414450286
N           1.74054187240522   -0.86714692715411   -1.42818230897885
H           1.73531539291667   -1.03148293352476   -0.38444320956916
H           2.56846980593451   -1.25446863712532   -1.86693626020957
H           0.84978093283709   -1.29314232410513   -1.79567030361568
