    26
        -50.46954184  Gyration_radius:  2.39869338298 Dipole_moment: 4.983
 S          -1.34939329771690   -0.64934704855149    0.53897634039147
O          -1.80368446836738   -1.59559337868005   -0.61574091835955
O          -1.19055572232839    0.68973566046116   -0.03279390294890
O          -2.31166123119015   -0.68273489869951    1.60556405326962
O          -0.03671585937146   -1.17013955720992    0.97543947120984
O           1.67316202858371   -0.22277232331795   -2.25387843038334
H           2.34077084542290   -0.37574611877456   -2.92378722987604
O           1.20384122081026    1.78521777388555   -0.35697024542203
H           1.58702190321952    1.18806744149789   -1.01836839638187
H           0.25827630270424    1.52693651111627   -0.32442791863821
O          -1.06460867496821   -0.05694567442693   -2.57090200373329
H          -1.24479134722829    0.60737923018363   -1.88670426878713
H          -0.09270261089961   -0.08299541190243   -2.64518233803293
H          -1.58239569290098   -1.12192008982886   -1.46504658373736
O          -1.43911092025315    1.56756764672426    2.66917804547919
H          -1.73258904032276    2.17353402732106    1.98337048341016
H          -1.85293428077990    0.70718620304800    2.42496446887272
H           0.15857113898097    1.29575786753410    2.46697263934970
O           1.04058396287800   -2.47002302117638   -1.02676259525056
H           0.68797548248831   -2.06947287524775   -0.19980140690590
H           0.29741282472676   -2.93825415156083   -1.41450792550983
H           1.53289252661143   -1.08847953713078   -1.79198715061470
N           1.05381063606413    0.87020927864795    2.09798623245032
H           0.73956943772144   -0.08702294147383    1.75002339395775
H           1.78453253244079    0.82096309759125    2.79851278202593
H           1.34272227365090    1.37889229994016    1.21587341417141
