    26
        -50.46954181  Gyration_radius:  2.39861147193 Dipole_moment: 4.980
 S           1.38209204486725   -0.10818117359063    0.78003234949303
O           0.79487970428280    1.10466581850324    0.20599239486621
O           0.33940385036875   -1.14219302719763    0.94834938650154
O           2.37089582734795   -0.68995344502900   -0.27776213502726
O           2.07722658660506    0.14566039473433    2.01166871587791
O          -1.02654396683392   -0.66476535458628   -2.53632768755578
H          -1.45137377361279   -1.00899777397704   -3.32300356795700
O          -1.74391228896735    1.18668482446890   -0.55946305177395
H          -0.79566588783297    1.32181916219302   -0.34860318643451
H          -1.73252666334821    0.54812544298150   -1.28952644365189
O           0.20116472989294    1.76375010519795    2.91603916511300
H           0.33656157893844    2.49478126848752    2.30699586804150
H          -1.08886547082819    0.90175934375551    2.40675617083857
H           0.96301282776671    1.16243801576454    2.74513838880032
O           1.41821062545169    0.59992023972588   -2.31834434742969
H           2.12545102932222   -0.26787075695271   -1.14744330395627
H           0.56891961553622    0.19797255013696   -2.57886975782519
H           1.19338814485678    1.21716083628516   -1.60392357002740
O           0.24427474098873   -2.57810051754051   -1.24002345683837
H          -0.62766433075065   -1.44177235901599   -2.06765799652687
H           1.16812440170515   -2.67604038123736   -1.48255727035340
H           0.25583052600863   -2.14660306476703   -0.35564038875758
N          -1.65776817132143    0.19167935534337    1.86738388256302
H          -0.92847569729198   -0.52811538180590    1.57396169183785
H          -1.97313134523760    0.62095697863557    0.95279570455100
H          -2.41350862790116   -0.20478111051383    2.41403244566363
