    26
        -50.46954180  Gyration_radius:  2.39882507118 Dipole_moment: 4.979
 S          -0.21403697163901    1.54329457305781    0.32441440795151
O          -0.89890719806410    0.91365205075636   -0.82425169884521
O          -1.04924456025706    2.52069459390014    0.96607658953711
O           0.25792932090502    0.51194542627250    1.25107340803197
O           1.04717369421057    2.23668938011019   -0.27886437948941
O           1.85323180697612   -1.60886102893446   -1.38049119396890
H           2.37240854467017   -2.16750571137525   -1.96043559451832
O           0.02457846249479   -2.07096904257653    0.69152176900088
H           0.20363439989154   -1.17333346884033    1.04370089592811
H           0.61164424473520   -2.14224925101598   -0.07735712509496
O          -2.36443249671747    0.70855855762413    2.35978768863464
H          -1.65976309182083    0.44630040232431    2.95840419121201
H          -2.00229696855457    1.49494401017199    1.88907503097197
H          -2.49226808267880   -0.41759521794917    1.18349149855962
O           2.73854011218831    0.36580074565784    0.33376015020500
H           2.60486236796767   -0.39108769174636   -0.26630873468177
H           1.81062543954830    1.61750785533884   -0.11052653797257
H           2.08320437315910    0.24380403132009    1.03914384456172
O           0.87750142028028    0.45946051212644   -2.69414759104564
H           0.12940531777924    0.65617845558187   -2.08570112770902
H           1.43245412689344    1.24259416732620   -2.66946933333284
H           1.46572033033982   -0.89478028534885   -1.94839032862344
N          -2.30472516835680   -0.93462040236135    0.28019307282881
H          -1.52442903865361   -1.63305312644618    0.43446459701687
H          -1.86101922322923   -0.18722213655900   -0.33682862002362
H          -3.14179117172236   -1.34014742850049   -0.12233487894471
