    26
        -50.46954177  Gyration_radius:  2.39862900347 Dipole_moment: 4.981
 S          -1.44173187434713   -0.23002001651305    0.63124838653282
O          -0.53015229864896   -1.26315994686757    0.13428337950934
O          -1.20733456042456   -0.10564526030654    2.16905225624090
O          -1.06528280332684    1.08557043750002    0.07251984878275
O          -2.82043030697945   -0.53931550940077    0.37023238766270
O           2.59236374953690    0.64715643077922    0.88916480692429
H           3.44604680136866    1.01180041937281    1.12595130436271
O           1.56700336667313   -0.65240187985072   -1.37129365020380
H           0.85893972510936   -1.04576977935011   -0.81828934538001
H           2.09621310340026   -0.13752399176800   -0.74217091710161
O           1.11127323526826   -1.27071601182413    2.21313926992193
H           1.77900124950134   -0.66133086380326    1.84781071765200
H          -0.32339012933191   -0.53077105225057    2.34960818651902
H           0.71634723328380   -1.70187138186635    1.43849341504132
O          -2.32641027688693   -1.38841027414485   -2.07736857384878
H          -1.84801847497401   -2.19223486236835   -1.85679029080557
H          -2.68118251708740   -1.07337986409111   -1.21362276414223
H          -1.24186553854224   -0.23880217683089   -2.48851083488351
O           0.63795820365509    2.21660638813043    1.70955245152295
H          -0.04783168399770    1.90843900152052    1.07457131191161
H           0.29137722467953    1.99743893373560    2.57771739090180
H           1.91342632593550    1.31368556720079    1.16711006845859
N          -0.53753455985479    0.54346447770331   -2.38508483281218
H          -0.78490211563821    0.96624010076381   -1.43840758891127
H          -0.57799850893309    1.21295393436602   -3.14488618879399
H           0.42411542058961    0.12799717016535   -2.23403017507704
