    26
        -50.46954169  Gyration_radius:  2.39871118923 Dipole_moment: 4.981
 S           1.39209012986254   -0.77126354229712    0.02534398683030
O           1.17477397390849    0.65072288555333    0.30133764585058
O           0.11924284469841   -1.51075323358133    0.15852810549949
O           1.78480595396746   -0.89659007437117   -1.47977266957189
O           2.42240750026822   -1.34145192870761    0.84867320559939
O          -1.81464131476678    0.97900036663657   -1.91923974556721
H          -2.52108440978384    1.18951739835582   -2.53120469819029
O          -1.25358647840958    1.62047406850588    0.75018989753923
H          -1.67030533876726    1.47169094006833   -0.11299880324034
H          -0.30403918397075    1.43473797182675    0.58984013972350
O          -1.06666729833386   -1.53696196393660   -2.17647316340582
H          -0.66706478157421   -1.64394239199252   -1.28351369972400
H          -1.63058409733250    0.01049199997827   -2.02247008530074
H          -0.34312944095483   -1.67478130364641   -2.79241259551157
O           0.89334679327083    1.42741850169319   -2.21521200563775
H          -0.08085300518192    1.39872452539055   -2.24653051461629
H           1.10775155798976    1.61036914220005   -1.28648416811817
H           1.50001451418318   -0.04418703359528   -1.91194323676748
O           1.58737810399534   -0.09906996787330    3.02026839493935
H          -0.01522976325901   -0.29496814736471    2.77562923163971
H           1.99809054229281   -0.66008845529063    2.32202407973194
H           1.82314945707946    0.79850647907814    2.77039712774411
N          -0.92617769524875   -0.49017277961079    2.27478190292623
H          -0.62065700132537   -1.07805005174426    1.43988925603937
H          -1.28158201343072    0.40594916822161    1.83779738150798
H          -1.60744956919585   -0.95532258347785    2.86355504008959
