    26
        -50.46954176  Gyration_radius:  2.39883468803 Dipole_moment: 4.985
 S           1.10747876415332    0.51813586906807    1.01984870488165
O           1.04294841215080    0.79465281589094   -0.41706689479880
O          -0.21536782327320    0.07447084343577    1.50775155241190
O           2.04997005328788   -0.71040136913618    1.21353524226533
O           1.60076365467664    1.63677348325500    1.77478637123170
O          -0.67975917596290   -2.40030768184617   -1.30797667914801
H          -1.03462329413072   -3.22254484739157   -1.64828519040728
O          -1.15164783717521    0.31152022196081   -1.82749898855379
H          -1.19894721981221   -0.65512706888543   -1.76125192039772
H          -0.26631070267789    0.53031103156902   -1.46675311537233
O           0.17636675454696    3.38519218142692    0.40727410935991
H           0.73419789558331    2.86538831296907    1.03162769134078
H           0.64503532108019    3.32996576468264   -0.42997175443751
H          -1.19474805382115    2.50477925809058    0.29278397374892
O           1.94830426978548   -1.55474760385202   -1.23878575985089
H           1.79293039794265   -0.60646778450311   -1.37525694119075
H           2.11694387052157   -1.15141182376933    0.32162815039214
H           1.08276289805915   -1.97562153286446   -1.39475066046205
O          -0.33502111112166   -2.53366416806327    1.30333840708929
H          -0.35760333967365   -1.56686160700540    1.48603175171785
H          -0.63787424742251   -2.49694191012673   -0.32234107943536
H           0.54099967960832   -2.81886362673463    1.57376270608976
N          -1.84071595787296    1.66761353894293    0.31076279068552
H          -1.82733180145411    1.19721509852434   -0.63738517264710
H          -2.77172447173998    1.89561813705563    0.64000837984475
H          -1.32702694526219    0.98132447730667    0.94418431564261
