    26
        -50.47250036  Gyration_radius:  2.409172993 Dipole_moment: 3.085
 S          -0.03101714157793    1.09711098353415   -0.89283320105373
O           0.28071910492933    2.05330715652645    0.17522744475629
O           0.88288098541405   -0.04249099876657   -0.79828664104980
O          -1.41711546793473    0.68886139582116   -0.87551175420684
O           0.22267642000523    1.79569988040423   -2.26060097710119
O           1.85186678433037   -1.05918291816254    1.47446135065421
H           1.52013284652187   -1.96072722944983    1.41513295354906
H           1.67892168729271   -0.67653248452751    0.58916072529491
O          -1.97972627563315   -1.60213345962522   -2.20583098331792
H          -1.80374603864658   -0.73565393896681   -1.79465914292359
H          -2.57343688485318   -1.43530365619631   -2.93866772155481
O          -2.01840422561217   -0.74481427180800    1.33087515856767
H          -2.13083747212981   -0.16169263125626    0.55874991281330
H          -0.92950115989021    0.04062995844874    2.08061954110060
O           2.59392991599283    2.17279303832052   -1.17637498386064
H           1.15663423777124    2.07754212049457   -2.18901893858576
H           1.97434420244336    2.36557338901200   -0.45367867824457
H           2.81212593450439    1.23946206546777   -1.09248399366396
O          -0.39619667942919   -2.32921868288271   -0.07229389822150
H           0.09339811806277   -1.56582781509033   -0.43267613731670
H          -1.52806037260574   -1.51502571256063    0.95582975351563
H          -0.98943930382658   -2.57332565423470   -0.79462004858683
N          -0.03751021693768    0.59540794380518    2.33502359005927
H           0.77852126640248   -0.06370798270352    2.23654011589086
H          -0.08663385302179    1.02129231854159    3.25380430641982
H           0.07547355845212    1.31795717583873    1.57211223705772
