    26
        -50.46160212  Gyration_radius:  2.61734888537 Dipole_moment: 3.621
 S          -0.37305136097415   -0.58879529205212    0.01799790991340
O          -1.79852210233255   -0.76133710082095    0.21905664628261
O           0.27321871319966    0.07395591346758    1.14304252866032
O           0.27817444885409   -1.98059653075680   -0.17145089818782
O          -0.14691146163609    0.16608628080862   -1.23331120207239
O           3.80143669229031   -0.58476931535459   -1.07384754976754
H           4.56182538473178   -1.06411126843173   -1.40626708093828
O          -3.05949279350739    0.39940088438313    2.22267643389322
H          -3.02975921126721   -0.16887311317859    2.99356580417245
H          -2.64913294822229   -0.11831479567281    1.49260065728388
O           1.68040106906991   -1.22101033458444   -2.58519318529956
H           1.40306192914679   -2.09817726727147   -2.30692770674852
H           1.01266881555695   -0.61746528297080   -2.20136879555760
H           3.07360242263329   -0.73497701398233   -1.71986951407454
O           2.44164083848577   -1.48929555007243    1.04121401318024
H           1.95984408119721   -0.72803633246800    1.40135752313757
H           1.17875438430074   -1.92566216068613    0.30656799557079
H           3.04418030847144   -1.12935149500078    0.34899432963068
O          -1.19656088456564    2.20878412632097    1.62401975120736
H          -1.70963147006039    2.15839826337272    0.22887696157030
H          -1.92906973254393    1.74554589185140    2.08481189849468
H          -0.49510563179348    1.52059892307077    1.55344220148690
N          -2.03190040181968    1.84801289867455   -0.77905528350429
H          -2.85284637052813    1.25368618730410   -0.67617026500889
H          -1.23267832423502    1.20909539115894   -1.11844379608355
H          -2.20414637443481    2.62720808289690   -1.40631938724751
