    26
        -50.46160209  Gyration_radius:  2.61733525832 Dipole_moment: 3.626
 S           0.42684672969599    0.49610413585752   -0.24604638915955
O           0.90489128855517    1.69683188144844    0.41105421562820
O           0.81170933535658   -0.71810677984596    0.46115116504900
O          -1.04294108866881    0.57330977482004   -0.38984575752444
O           1.01668691921913    0.43914840122426   -1.67636017821640
O          -1.06871340100931   -2.66548050765622   -2.77331104139375
H          -1.15795711193205   -3.04135578592056   -3.65037094686403
O           1.96346447118112    1.62099715661818    2.82488343923719
H           1.64215909953679    1.71966355069872    1.89948503480285
H           2.90635547689754    1.46459492782666    2.75782171861681
O          -1.54627082448852   -0.03204697310798   -2.93380413935630
H          -1.50662820366617    0.20407113335502   -1.98507746349133
H          -0.75826793867347    0.36435184282767   -3.31551490585508
H          -1.37352829793997   -1.73138203184006   -2.83856872861680
O           0.12569944877905   -0.30402443380402    2.97231060934187
H           0.87619109492699    0.28438571792923    3.20417687411587
H          -0.86011253370285    0.71636213518298    2.52480179544397
H           0.37897113919094   -0.66731585173588    2.09227383713395
O           1.34188151773316   -2.06593293205121   -1.78762653220454
H           1.22099726403824   -0.54674359675261   -1.84582299329401
H           1.24002627344434   -2.02917265485128   -0.82345953770809
H           0.49063529296671   -2.41741572090166   -2.13923104946979
N          -1.41432467624724    1.49602588666860    1.97636811339449
H          -2.34965039523385    1.65623909254880    2.33668564280906
H          -1.41593069770664    1.14136467863837    0.95821869621523
H          -0.85219019225714    2.34552694282833    1.98580852135999
