    26
        -50.46160225  Gyration_radius:  2.61689869097 Dipole_moment: 3.628
 S          -0.33127263626531   -0.59309284540281   -0.16496285965348
O          -0.79139796181540   -0.90263323744455   -1.61041916779048
O          -1.06346692599571    0.61586051165862    0.26992696586461
O          -0.69569376981724   -1.70458919349680    0.69174320336361
O           1.10474249046798   -0.34761770122429   -0.18003293706628
O           0.13773899970297    2.60422969855939   -3.02080515026833
H          -0.07178370498584    2.97472383965046   -3.87948082400461
O           1.04786345772854   -2.81334447205291    2.32924379199143
H           1.51480165398050   -3.51532774671519    1.87399377380173
H           0.36159758887152   -2.49584109774158    1.69855838143445
O           1.82034589295237   -0.26276644507586    2.35516379095211
H           1.80528410356431   -1.23114647217844    2.51416065729997
H           1.73849589129486   -0.18689641905071    1.37625129901257
H           0.42007019798903    0.07079523824507    2.72945981261525
O           1.17194265281002    0.14956262114352   -2.80658026797902
H           0.90989549580289    1.09016391257563   -2.94204200712063
H           1.60242745767713    0.11324328346900   -1.93778174704459
H          -0.05236334865339   -0.53973865942429   -2.21432174969404
O          -2.12285752404641    1.64257144379428   -1.94705315515572
H          -2.30212027150973    0.81172918158908   -2.39576623461061
H          -1.79476452744084    1.37996531683370   -1.06343354124994
H          -0.72232469759354    2.37777538137509   -2.59814425674040
N          -0.67639011529933    0.18126207021821    2.76986338627200
H          -0.94081600088206    0.48070813154739    1.76849540221432
H          -0.99008802513800    0.84365798814684    3.47213106565879
H          -1.07986637340926   -0.74325433900080    2.91183233789661
