    26
        -50.45396363  Gyration_radius:  2.61552398519 Dipole_moment: 3.041
 S           0.76155198168649    0.44731695148147    0.10522476097600
O           0.29770995790897   -0.97689495165468   -0.20414564975409
O          -0.33897009240116    1.35230540315200   -0.45990914408865
O           0.82278422158565    0.59477077565783    1.53081942185608
O           1.98266710015511    0.71195154353302   -0.61382817954149
O           0.80273346567582    1.17926652697154   -3.00595958391898
H           0.00514383334595    1.63084732745387   -2.71798705651519
H           1.40592914892997    1.21204336290011   -2.24414928979971
O           3.26905987591698   -1.36266956289428   -1.80593334605757
H           2.99019751079519   -0.53754620281484   -1.37004823766414
H           3.76301643999233   -1.86414554484708   -1.15593367223955
O          -0.70948413574699   -1.48830115188638    2.38526024163918
H          -0.58449976621983   -2.04740992315917    1.61421162902904
H          -0.08401294132303   -0.75525420667149    2.25982958068458
O          -1.45821806515292    2.11766856443409    1.60667272790901
H          -2.15521197362040    1.41133991719304    1.82826351664536
H          -0.69431625546407    1.90707911090777    2.15838530530135
H          -0.88741236165223    1.73236768649074    0.36472419470809
O           0.71164679996772   -1.44192658062968   -2.60484716283256
H           0.66724230195802   -0.53344382876658   -2.98903995423670
H           1.66884390505771   -1.64155873345618   -2.54470216054500
H           0.42060285691065   -1.21356955356017   -1.24181480083279
N          -3.05600170535082    0.12981294160018    2.20657560661918
H          -3.66956148078044   -0.20676921304705    1.47602473650220
H          -3.59897415680393    0.21944480800940    3.05559627761706
H          -2.33246644537274   -0.57672545639387    2.36671024853626
