    26
        -50.46160233  Gyration_radius:  2.6172211527 Dipole_moment: 3.625
 S           0.27315387787017    0.61258300596856    0.19180463624199
O          -0.55767677061551    1.68444443728688    0.93859378119728
O           1.62152506250239    1.11102385625025    0.00300846440973
O           0.23772986683655   -0.62117404556543    0.96593395418482
O          -0.36265821598239    0.41901400482878   -1.12921764022327
O          -3.93998188407434   -0.21447560992640    0.61117429893154
H          -4.82070783309289    0.10183263283340    0.81792737197448
O           3.73043047778980   -0.33470262664851    0.64659813842538
H           3.96174786442939   -0.17628200324373    1.56282494352123
H           2.99477343043734    0.28775712283148    0.44474428037765
O           2.01397283133777   -2.20313184448200   -0.17025242397401
H           1.27140710928741   -1.79749254419387    0.33439280129595
H           1.88972913285312   -1.42135670779601   -1.42983459261813
H           2.81192782616065   -1.77593555596686    0.20920885312012
O          -2.74197598465318    1.60216350660983   -0.95493359506061
H          -3.57379629524346    0.40257300021427   -0.06321037259343
H          -2.48005091311017    2.32467316113997   -0.37773688090636
H          -1.90775240454955    1.13187796127744   -1.15580085856129
O          -1.93436387863733    0.10079321097885    2.34863710849475
H          -1.26083405577767   -0.55414759547611    2.10601701941177
H          -1.15923337064716    1.16418265526339    1.57915250890113
H          -2.72573183211156   -0.10449527649624    1.79787815062579
N           1.72417241454208   -0.63693070268002   -2.18688152048579
H           0.78723514738104   -0.19124109632963   -1.89398414824975
H           1.70942652865526   -0.99030145996994   -3.13831842559751
H           2.43753185842145    0.07874853330486   -2.05772587283184
