    26
        -50.46160235  Gyration_radius:  2.61722169715 Dipole_moment: 3.628
 S           0.31465461428644   -0.17797539049906   -0.59787798276581
O           0.39695198286081    0.56107524560403   -1.84254540359135
O           0.89537780598452    0.54970044086207    0.52271084521543
O          -1.09927935938875   -0.51493691189154   -0.32577612792985
O           1.07377157169705   -1.51762913632243   -0.75926436300783
O          -0.01038609840683   -2.94154875097595    2.70007558024654
H           0.10646585293220   -3.83021053096872    3.03934391138285
O           1.13315344452583    3.09213859593305   -1.89720359082395
H           0.91496081107614    2.13431129410405   -1.96394618808949
H           2.08657835122428    3.14796846347967   -1.97455952478351
O           2.03013439686671   -1.62949281642551    1.57872987708319
H           1.80024156158990   -0.68763969367036    1.61800515910100
H           1.34591726093106   -2.09984874117041    2.11003351277304
H           1.53942285945377   -1.67551270237214    0.13557090218279
O          -1.11308255438290   -3.11218279541858    0.26208143993601
H          -0.53029269051225   -3.02753526510472    1.86821378324586
H          -1.25250562850811   -2.16285838002711    0.07026869838373
H          -0.40894563443834   -3.37947393000482   -0.33498996855675
O          -0.18005009544336    2.95439613214840    0.41799356447027
H           0.36825218913627    3.29588037259447   -0.32100101662928
H          -1.32230322377599    2.39980085243602   -0.35738250484155
H           0.26235265854476    2.10912446751205    0.66360238432034
N          -1.97783980585473    1.79799817760601   -1.00837227088970
H          -2.96124588524830    2.03346826648109   -0.92024589217870
H          -1.76549519326165    0.78187454090916   -0.71700262944470
H          -1.64680918182157    1.89910821517609   -1.96646221481343
