    26
        -50.46147052  Gyration_radius:  2.59170159937 Dipole_moment: 4.225
 S           0.30836014246300   -0.45816542632508   -0.50183563462727
O           0.40958506017544   -0.02203557512518    0.88382711913861
O           1.48483060354269   -0.17961580773790   -1.28972478613533
O          -0.11404472133135   -1.86847451120039   -0.55558033807338
O          -0.91215134257618    0.31842985133892   -1.11960198361996
O           1.30279325412794    3.65593971635681   -0.91825750193557
H           1.97489773078088    4.29143900179518   -1.16889450265241
H           1.75162787054774    2.99503930639075   -0.33749463006372
O           2.46437537219591    1.65385793783223    0.40197434457689
H           2.46288465783367    1.00635611600482   -0.32274194466505
H           1.79299427682381    1.29040020934402    0.99737290353519
O           0.04199686097089   -3.11613048974669    1.83423300087310
H           0.95216232564531   -3.15273443513316    2.13204054787006
H           0.07131072805621   -2.76197419260855    0.92297859211058
O          -1.44630290958202   -0.97258947243506    2.47580425447514
H          -1.00884726073702   -1.84205932189607    2.58294987520399
H          -0.74529800699078   -0.43254718872111    2.03979199351837
H          -2.24958831109719   -1.22138110071640    1.24323990993530
O           0.38738808920100    1.85313984698732   -2.66777545092319
H           1.09981575012306    1.20520485928853   -2.55675745356877
H          -0.52067046298292    0.99081551271340   -1.76785880927828
H           0.63886547417179    2.62382801763917   -2.10673057721069
N          -2.52865952111260   -1.42639987002071    0.19729449452570
H          -1.59105619513838   -1.74448547396662   -0.22675698451484
H          -2.77047812100447   -0.55831535064754   -0.27815285475305
H          -3.25679135409491   -2.12754214940988    0.10665641625840
