    26
        -50.46160226  Gyration_radius:  2.61737231283 Dipole_moment: 3.626
 S           0.29067767746283   -0.47541622785980   -0.42025698113878
O           0.28690804055763    0.97054814706501   -0.59870928192038
O          -0.29191625011578   -1.17577254277786   -1.54820248416509
O           1.75548492418311   -0.94404458869255   -0.24187473208752
O          -0.43444917834634   -0.85166167853340    0.81240020694284
O           2.32444071905296    0.98877420250592    3.09227166893090
H           3.06698477135887    0.92754885937781    3.69506179021113
O          -1.57141258863485    0.11173614163805   -3.46086570471617
H          -1.05325191332724   -0.42986825421133   -2.82253514898741
H          -0.94987487960589    0.38117148479331   -4.13843558750632
O          -2.17757743460064    1.57186658475813   -1.31508178223689
H          -2.65711192079264    0.30972253438928   -0.69065372512093
H          -1.24648804659033    1.55686032127614   -0.99343784658054
H          -2.10451052387637    1.27578957347053   -2.24801083396581
O           2.72062807294116    1.28328132206146    0.46581147994521
H           1.89723675783201    1.64975457345091    0.10648807316548
H           2.62294417819010    1.30178368989062    1.44652742658149
H           2.27614132243749   -0.10898593054326    0.03008448304315
O           1.44950904470605   -1.49364803080448    2.58169053128371
H           1.94531548365328    0.08248861377627    3.02498996190135
H           0.66195106613811   -1.28745402134028    2.03887936876410
H           2.07590400070786   -1.87992473637523    1.96351656216773
N          -2.75142090858599   -0.71042914840028   -0.28297411607825
H          -3.59793609827714   -0.85241686750757    0.25881221657858
H          -1.85589433609862   -0.83573963798817    0.30412383351871
H          -2.68228199037534   -1.36596440343661   -1.05961939853720
