    26
        -50.46160222  Gyration_radius:  2.61726261303 Dipole_moment: 3.632
 S           0.69111182739948   -0.04586127757295   -0.09347785729364
O          -0.06206465921657   -0.35257443622389    1.11542955283972
O          -0.21324330865792    0.40927963589855   -1.17129758068029
O           1.71165262262698    0.95976863747819    0.12859517250094
O           1.36821242597340   -1.34546046316862   -0.59286946204340
O          -1.96757150746379   -3.21695990261004   -1.31169370609657
H          -2.09380857893473   -4.05100719090926   -1.76658370359996
O           1.82952411509541    2.33649442165851    2.37366150709004
H           1.88952046425956    1.81868490276758    1.53830379579073
H           2.37397467433757    1.86964041059843    3.00906975319464
O          -0.42051033312967   -1.65261352228815   -2.84394502372893
H          -1.50895951941320   -2.62040961979317   -1.94689115720218
H          -0.43749906650303   -0.82658972628617   -2.31972880270498
H           0.47680892674698   -1.98301973075640   -2.74701284815442
O          -0.79707207824159    1.98428506899461    2.08833984881634
H          -0.68413043389692    1.03560116022481    1.84764488439379
H           0.07129876177529    2.22984951273076    2.47413251401993
H          -0.64405418326370    2.58395116038179    0.73565912700942
O          -0.13436030628302   -2.97891382421159    0.61806015506005
H          -0.39515020776948   -2.20652282412656    1.14425447777159
H          -0.87829439606321   -3.14739284652721   -0.00639321835433
H           0.85699221157824   -2.10773126196532   -0.14533093720322
N          -0.34638034394604    2.81984637950312   -0.29955496367496
H           0.62764949064446    3.11780245701095   -0.28555521785412
H          -0.94624731924364    3.50636167971945   -0.74588393328028
H          -0.36739926837436    1.86349117944796   -0.79693234661028
