    26
        -50.46160222  Gyration_radius:  2.61699873221 Dipole_moment: 3.629
 S           0.52885703717108    0.42784200191724    0.16369038836179
O          -0.09124372696103    0.24691788362154   -1.14228777419207
O           0.48319431314035    1.80548627363889    0.61349863248813
O          -0.11978573808099   -0.43527494614663    1.17415853070203
O           2.00780692836863   -0.02050671279146    0.07112827990890
O           1.18421347331340   -3.74373063884990   -0.71922738182192
H           1.78282970169656   -4.49157337163728   -0.74891633599307
O          -0.95863477255650    3.61993258082076   -0.64339710772177
H          -0.43391195918381    4.02564175721415   -1.33491675124288
H          -0.34722789097435    3.01592382170375   -0.16299813698679
O          -2.44113443903435    1.42827720320710   -0.96555049096721
H          -1.65459533187604    0.88266299204020   -1.19848155721327
H          -2.39218703205691    1.28222060303666    0.51425735144433
H          -2.11564485116571    2.35043667272589   -1.04833673603377
O           1.77712814955306   -1.46830458467528   -1.98860638868166
H           1.54438284531227   -2.36237625997382   -1.64466739510257
H           0.93606789361833   -0.99998780402923   -2.11034877250544
H           2.06062969848939   -0.61206385604545   -0.75962100774808
O           1.57859278844797   -2.44336792642290    1.59188135704520
H           0.86766701564087   -1.77339947331657    1.53535360449516
H           1.25813441515364   -3.36390041059502    0.18628891074688
H           2.39227196459003   -1.94316813052235    1.48462989902936
N          -2.07841898386479    1.17675895330595    1.56604426467528
H          -1.31305277722871    0.41829491974669    1.53053871592951
H          -2.83985867526429    0.93611641423282    2.19262595194096
H          -1.61608004624408    2.04114203778233    1.84325994943870
