    26
        -50.46160236  Gyration_radius:  2.61735645514 Dipole_moment: 3.630
 S          -0.22450615623774    0.55898828634968   -0.35281741167791
O           0.03235924820066    0.93480724737303   -1.72941616155927
O          -1.13791786701248    1.62734716163155    0.29621968574444
O          -0.87933783110957   -0.73773065907736   -0.24142470904979
O           1.04885915410033    0.56775997983510    0.39896950991464
O          -0.92954062257164    0.12435520275290    3.88192882373126
H          -1.24069713518443    0.50617806788427    4.70405495535382
O          -0.28411170124200   -0.77688975438663   -3.70963928614087
H          -0.20723100545019   -0.06525763095268   -3.03357219468977
H          -1.18745585652859   -0.73850247686569   -4.02658019904998
O           0.55796290651740    1.96053093483972    2.61515432434342
H          -0.05895027307417    2.59064288692869    2.23286524348929
H          -0.28658783313071    0.76665312989552    3.50288294856680
H           0.87360784151917    1.43162916624150    1.85486251224595
O           0.55177632036247   -2.36678579480187   -1.74047155414618
H          -0.05158821471419   -1.94180624783703   -1.08784005934560
H           0.20460993904505   -2.06427889350747   -2.60722288133275
H           1.71668168548491   -1.45103877326108   -1.60748205014662
O          -2.50760436908260    0.05507050738189    1.72621718452399
H          -2.01118985272402   -0.01151477565157    2.57521700233177
H          -1.77663799677748    1.10795134602384    0.90014656707655
H          -2.14682057657835   -0.63630250116392    1.14890922477127
N           2.37906138364644   -0.58000674380786   -1.47215719190136
H           3.35469491597576   -0.82995195222849   -1.34575733866872
H           1.96489661945720   -0.07367329533606   -0.61512126263920
H           2.24566730714624    0.04182557173335   -2.26792569174907
