    26
        -50.46160210  Gyration_radius:  2.61719266065 Dipole_moment: 3.619
 S           0.65300195003522    0.23187978288790    0.08246485514515
O          -0.24645239500294    0.52216408191264   -1.02626351933239
O          -0.00451785921139   -0.64879782166199    1.07184661416027
O           1.87570032035078   -0.54237513463764   -0.46757781247830
O           1.11889683918789    1.43240099177547    0.74867598582750
O          -0.17715489955925   -3.65725345704263   -1.59045631366087
H           0.14905283045528   -4.50460974149600   -1.89715497680301
O           0.07524211891772    3.79534303031520    0.22024237269100
H           0.55837780824913    2.96153807949996    0.42203295234467
H           0.54168301141832    4.19511679466125   -0.51507115058855
O          -2.03588833490837    2.19078959151959   -0.04529396762299
H          -1.51836268619827    1.53175433989510   -0.56343276800066
H          -1.73299310918954    1.69599160987596    1.32406521520599
H          -1.46900812684177    2.99200978474796   -0.05935766187115
O           1.06668489790559   -3.05929681940189    0.70811267336498
H           0.19650976475111   -3.52508206472271   -0.68903896496580
H           1.95146992907989   -2.76914384313767    0.47000829568390
H           0.59279111930838   -2.23710170856455    0.94661425381865
O           0.79412610602679   -1.37914093122908   -2.59431718402137
H           1.57317820262990   -0.92427702229383   -1.36484881648848
H           0.37922473873507   -2.23839231114802   -2.34664201798096
H           0.12793106522199   -0.69692240849189   -2.41513670727127
N          -1.25970189503890    1.27055203507091    2.22476228024434
H          -1.91452585019685    1.09198262267257    2.97948776493119
H          -0.51064094685824    1.89857883942021    2.51149463222338
H          -0.78462460926968    0.37229169957478    1.86478395544731
