    26
        -50.45396348  Gyration_radius:  2.61620248531 Dipole_moment: 3.048
 S          -0.21147044730075    0.80765654358158   -0.30173958488630
O           0.96166724840581    0.20712307780706   -1.08463344220283
O           0.08393410765951    2.19202365840393   -0.02889317269358
O          -1.43885317000762    0.54879982036246   -0.99776961931072
O          -0.24206252023081    0.03350987602973    1.01690274947324
O           0.01061764682815    3.05756942379133    2.54489789907539
H          -0.89611232147266    3.19563356508219    2.82199126927865
H          -0.00731480330024    2.93744462382595    1.57852874505125
O           2.74926931926433    1.84804508185241    0.30368731989549
H           1.88104759716146    2.22169379294234    0.07592975498963
H           2.91836499542364    1.17525183662092   -0.36100944844794
O          -2.32997353543636   -1.70521134366839    0.24438794137427
H          -2.20045516608618   -0.87704964323413   -0.24719347290679
H          -1.87620848866976   -1.56439866737974    1.07924989380780
O           1.57403878434027    0.88167876804183    2.47715279552306
H           0.55101289015366    0.33793227831405    1.67012573655543
H           2.22349124248927    1.20876896471591    1.80916791325641
H           1.12395755395610    1.68808420360879    2.80425953218518
O          -0.21905244813843   -1.10723345967265   -2.81315480008029
H          -0.40236859377955   -2.01772921895033   -2.39939854996468
H          -1.03767338981220   -0.60657368092558   -2.70597305748176
H           0.55011912809789   -0.38854885786093   -1.85988976351690
N          -0.84017497535350   -3.32939966810091   -1.57190556023686
H          -1.45869514776330   -2.91790017043523   -0.86740524269402
H          -0.09411185895962   -3.81543425879984   -1.09176656554872
H          -1.37299366745770   -4.01173653596598   -2.09554925048674
