    26
        -50.46160210  Gyration_radius:  2.61741878264 Dipole_moment: 3.637
 S          -0.53779424488063    0.43713041042903    0.08713687881560
O          -0.52152174181474   -0.80693661997220   -0.67095029335357
O           0.78389373446870    0.69392441404831    0.69864254882542
O          -0.81566969303591    1.60443480402468   -0.89118261325173
O          -1.55134060474905    0.44222542446632    1.12395690147826
O           2.45193169558408    1.11741383401580   -2.94728929580603
H           2.82197962215989    1.69190076448865   -3.61924164366994
O          -2.86492636541268   -1.74601921669904    1.78497847297384
H          -2.46438137328806   -0.87805858426689    1.54908733685689
H          -3.64993034445092   -1.82692797258445    1.24142412118790
O           1.89497932491921    2.60477263190292   -0.78710690713359
H           1.61148207859492    1.90547727419561   -0.16421184582251
H           2.37780336529102    1.65922881186154   -2.12837378111395
H           1.08971381332283    3.08758419163352   -0.99240645395673
O          -0.12645683138465    0.41780343842952   -3.01481768985494
H          -0.59410460575170    1.23988848685513   -1.81887122516263
H           0.83861047083273    0.59857348105147   -3.10225317292747
H          -0.20148868071121   -0.38804742764896   -2.47962462697200
O          -0.46982485990560   -2.72281312990884    1.13895424159080
H           0.09063621452128   -1.76108946595889    2.12681055877818
H          -1.41786719945453   -2.67625458100991    1.38801734056169
H          -0.41410612127267   -2.16141002242520    0.33125268709278
N           0.37105380266319   -0.86117171183960    2.69842294163271
H          -0.47503177734730   -0.48085975618033    3.11938869405598
H           0.67740431257866   -0.15996218825782    1.93879489757548
H           1.09495601852353   -1.03080732065254    3.38946192759684
