    26
        -50.46160219  Gyration_radius:  2.61739156802 Dipole_moment: 3.632
 S           0.66727217662402    0.19858901460892    0.06457711503018
O          -0.36723425671345    0.83251283629035   -0.74197668891137
O           0.12485628673621   -0.97610367133341    0.78086372027312
O           1.77613020600126   -0.32337912504286   -0.88130807430541
O           1.25948757472774    1.11007023319084    1.02407853595699
O          -0.51295157192093   -2.89251601169562   -2.70545844264539
H          -0.25877999745902   -3.57900564499238   -3.32400415204093
O           0.22256325893311    3.48860133225511    1.49253257582230
H           0.70338255299998    2.64613395964593    1.32366756516104
H           0.60101875932343    4.12981123881978    0.88941713032200
O          -1.95425549185586    2.03532632594521    0.98575507602099
H          -1.53242328269991    1.60129182569984    0.20843186394115
H          -1.47852020519286    1.11183904090828    2.05153475056709
H          -1.37156935980587    2.80417759065839    1.16573922071770
O           0.38989628687266   -0.39407539992375   -2.99433632380354
H           1.34216585737039   -0.37789133451253   -1.80418567361039
H          -0.01579991180389   -1.29250764887932   -3.00114072962335
H          -0.22296478555258    0.17402337099378   -2.50122565550732
O           1.04579162151695   -3.10079915783214   -0.53407466653353
H           0.63908903724322   -2.41700789100049    0.03549811886234
H          -0.01859923966883   -3.07140965170136   -1.87281963284654
H           1.90038952291563   -2.73568823397461   -0.77924045939486
N          -0.89620469738441    0.41720450350126    2.67898420372279
H          -1.44323782267478   -0.01796336961498    3.41496148967844
H          -0.09575362779926    0.92644010907531    3.05011028307327
H          -0.50374887073163   -0.29767421107572    1.97361884008382
