    26
        -50.46278507  Gyration_radius:  2.548915391 Dipole_moment: 6.701
 S           0.42922414678156    1.12825150316175   -0.28710822482048
O           0.47988500658441    0.89798564036456   -1.71648781052625
O           1.63183219143264    0.66049845126472    0.41037958135966
O           0.35453459449765    2.65592092121846   -0.02792839005941
O          -0.75767388520210    0.52455067884219    0.32488847659331
O           0.28706681588020   -3.17839656915475   -0.26251590744441
H          -0.21931314802167   -3.60450994395684   -0.95551424935202
O          -2.91134103947685    1.57506005712163   -0.80951152441487
H          -3.42874574381654    1.93002160098451   -0.08479600761892
H          -2.15620353876284    1.10077390171451   -0.39965178279518
O           1.81205652156321   -1.36368014754195   -1.47597183935380
H           1.26388889313296   -0.60546674586537   -1.76332787418857
H           2.43909744029436   -0.96248297737538   -0.86754372163756
H           0.87989943271003   -2.53627461050466   -0.72194225227546
O          -0.93672260687130   -1.76089496963021    1.61167090246581
H          -1.08836765725549   -0.92958557576799    1.10946239469712
H          -0.60215274896629   -2.40125192097635    0.93883099482205
H           0.30272049820966   -1.30964982314376    2.21980202336910
O          -1.08022713284339    3.05173125491665   -2.11599536741120
H          -0.56932051611609    2.31215586260812   -2.47909662084048
H          -1.91789774734157    2.64955977514681   -1.80599996550617
H          -0.19404719620784    2.99969110916684   -0.79375839647503
N           1.27966091907677   -0.83493484176948    2.46881252145862
H           2.01788393160032   -1.52974627940864    2.51683794957995
H           1.22749156790844   -0.30596599979856    3.33259030227972
H           1.45677102126847   -0.16336033166950    1.63387477812194
