    26
        -50.46278530  Gyration_radius:  2.54857215659 Dipole_moment: 6.698
 S          -0.17773911763944   -0.63197985885378   -1.05378197021540
O           0.66487224652575   -1.63531559795454   -0.39440287746727
O           0.57837379529867    0.28245621106077   -1.88485858032006
O          -1.16275871690440   -1.42679911357133   -1.95069079997866
O          -0.97718664868883    0.07309174560658   -0.04803536331963
O           2.03739555654973    1.40702341366916    2.02655129942037
H           2.18474224854470    2.34659042497372    1.90920684971185
O          -2.64903506604169    1.70853314290737   -1.29648226744799
H          -2.01100402221380    1.17540069369403   -0.77510110179441
H          -3.52081914154339    1.46718766788257   -0.97910759909111
O          -0.40216166763858    0.48011360331589    2.48431276897827
H          -0.75527559414744    0.49727372810819    1.56699267282368
H           0.00895807496949   -0.91133340650833    2.42864048407341
H           0.46770007398029    0.94334147207903    2.42593668229221
O           2.67869753507850    0.26760563996341   -0.29308312301214
H           1.98666815276924    0.46144145529319   -0.95753985121223
H           2.31655922222982    0.98538123606027    1.17853163825054
H           2.66412015607183   -0.69197948562517   -0.23549901049046
O          -1.56009179231351    0.58746203265044   -3.48715926396403
H          -0.63626666500936    0.79531856921197   -3.27936842474309
H          -1.43214138117538   -0.76299481063953   -2.65230692844218
H          -2.08605816304008    1.14602593356858   -2.87816220776591
N           0.36410637490088   -1.92768865781681    2.14015714918674
H           0.47591945154514   -1.86191018440568    1.06220218720916
H          -0.31809820528554   -2.64094420348428    2.37367532109814
H           1.26052330311983   -2.13330166127890    2.56937230615315
