    26
        -50.46278486  Gyration_radius:  2.54831618195 Dipole_moment: 6.690
 S           1.05244525396251   -0.22207337311424   -0.61406244710215
O           0.39689093335843   -0.45921566563891   -1.88408483669049
O           1.09610557992918   -1.41551210634981    0.23767819122939
O           2.53053900263704    0.16682057625248   -0.87821628743624
O           0.43600471452814    0.88367590272633    0.12411620671590
O          -2.95617496109212   -0.93742852898240    0.76650124701764
H          -3.67188450228829   -0.60430162511853    0.22330615394699
O           0.59430459208134    3.07711009176194   -1.35617786832651
H           0.44549098790226    2.28960224050836   -0.78965676959774
H           1.04672704198289    3.71944267283466   -0.80694065659166
O          -1.35077276232748    0.73715800554641    2.04746834548064
H          -2.07206602305680    0.21469805477750    1.62172325335007
H          -0.47940070803241   -0.32129081324161    2.52759150528244
H          -0.76046531454801    0.99846295726204    1.30617998636340
O           1.92653527378561    1.43722070184991   -3.02213114351765
H           1.23554911878450    0.76199934838967   -3.10260963947610
H           1.47698384004495    2.21031610654934   -2.62233846678231
H           2.48767537130006    0.69239914396177   -1.73109071241991
O          -1.30753621903982   -2.20755939605107   -0.89358220484639
H          -2.37031336248313   -1.44401311857321    0.15396733815145
H          -0.81952255390007   -1.54593591270875   -1.42505270751744
H          -0.60788970973683   -2.66885366386927   -0.42244704243903
N           0.24788356963931   -1.15679367585600    2.64884246440612
H           0.65989219174608   -1.28240787422139    1.65219654561597
H          -0.22381034208914   -2.00755244719662    2.93833481615932
H           0.98680899754667   -0.91596760167781    3.30048472886336
