    26
        -50.46261306  Gyration_radius:  2.55680133653 Dipole_moment: 6.683
 S           0.84425876733328   -0.50757140136474   -0.84841227678132
O           0.36662269653384    0.77074316521038   -0.31371218375988
O          -0.02145182696869   -1.02565593529294   -1.87993213254565
O           2.25846227513102   -0.26002448556636   -1.43950696172127
O           1.04425106545498   -1.45140205383477    0.26576358243147
O          -2.47938628124521   -0.35028690226372    2.01352432681864
H          -3.42267744151665   -0.25059908724894    1.88056028852245
O           0.28672590603511    2.48157344948402   -2.34098042386884
H           0.22420725138733    1.87802511792253   -1.57017797129627
H           0.83799489009212    3.21439251395995   -2.06124037313151
O           1.30235460156369    0.40333146705228   -3.72685617892216
H           0.93271323893486    1.27526467408455   -3.47896009362901
H           2.08109971226288    0.01026695576284   -2.38847567001491
H           0.61158375236348   -0.23464648213601   -3.48772041354134
O          -0.54498299645417    1.50538492414495    2.03628377268874
H           0.21263291286688    0.34192622717808    2.54092901926601
H          -0.22853212517963    1.42346099520135    1.10844934879800
H          -1.42117602481093    1.06782262462878    2.03885360645896
O          -1.56356870869470   -2.00330631492802    0.12572980415609
H          -2.17397500970224   -0.97250760569786    1.31230517193145
H          -1.60643563148801   -1.71234605514210   -0.79411953781387
H          -0.60507647294047   -2.06946282013215    0.27222852558682
N           0.67237268548804   -0.65144991520683    2.68965338189952
H           1.50979676383875   -0.61729020129311    3.26072807855541
H           0.90443124144068   -0.99197269685725    1.69042955386936
H          -0.02224520932296   -1.27367013090146    3.09465573762843
