    26
        -50.46278510  Gyration_radius:  2.54895565065 Dipole_moment: 6.703
 S           1.06926979527451    0.44453156187511    0.44982756985962
O           1.66230998511928    0.71648636325783   -0.84359637873217
O           1.26356659811367   -0.94180951744069    0.88795046667738
O           1.76639512815805    1.32910352480262    1.51669782831223
O          -0.35899620121826    0.77151265048677    0.47914140551108
O          -1.49651281752217   -2.02649271194550   -1.97709742854211
H          -1.74147495694637   -1.69358191475766   -2.84162666052459
O          -0.64492818071975    3.34461227238686   -0.09169206231681
H          -1.13706149012621    3.71193909961674    0.64437551092397
H          -0.61090070804192    2.37538574052844    0.05868651036530
O          -2.40577329018460   -0.85813180188581    0.22065773884656
H          -1.78875382839278   -0.09411001118975    0.26267109707904
H          -2.22464751647871   -1.27746541108947   -0.65443841759553
H          -1.61861070270798   -1.69670616237570    1.10846402910513
O           2.04501578141778    3.27981654597133   -0.12436573647036
H           2.13845024684192    2.57505029140543   -0.78344214441387
H           1.10931690634906    3.56216478910940   -0.18991889461143
H           1.96682587525824    2.17955312800387    1.02473077590797
O           1.13801715455345   -1.69156524580678   -1.77849032272149
H          -0.51461612237425   -1.93746659195294   -1.92551003619831
H           1.34622066443901   -0.74453486603749   -1.64545726293015
H           1.48967374561613   -2.10666208405909   -0.98583823802880
N          -0.81940278211897   -2.21491648346479    1.68641757058509
H          -0.74952385280229   -3.18983326846420    1.41306912162042
H          -0.96908312544845   -2.13190920258756    2.68609873370787
H           0.08522367392743   -1.68497071435843    1.40268524461677
