    26
        -50.46278514  Gyration_radius:  2.5487940454 Dipole_moment: 6.707
 S          -0.33272576694045   -0.34948172678491   -1.14331108290428
O           0.85436510157453   -0.38451359310582   -0.28463503026722
O          -0.62153231218443    0.98892344342206   -1.61643515828022
O          -0.04482214616716   -1.26146286344843   -2.36493417245947
O          -1.46396008415209   -0.96433943755972   -0.44064774611525
O          -0.69546867887668    1.63548960032308    2.66147397598436
H          -0.35222728567602    2.52787238882121    2.72547539316136
O           2.92558052336108    0.52026265075610   -1.67039644253462
H           2.18880993782571    0.24085231159928   -1.08537232741197
H           3.58254044448870   -0.17624912271482   -1.62357301976470
O           1.10524853485808    0.63763866413734   -3.64884710355963
H           0.42240051423796   -0.65241163369530   -3.00979970837962
H           0.46353664965032    1.19804634778020   -3.18634405530333
H           1.92686191491407    0.70808042420082   -3.12016183198746
O          -2.16334359001548    1.57023030423436    0.44068165519509
H          -1.57804121152879    1.57284802244260   -0.34376266154764
H          -2.64091344218162    0.74025663220187    0.35496866096150
H          -1.27185546171026    1.62841593852392    1.85988274074430
O           0.95398115266484   -0.41318827520315    2.34202344581367
H           0.44939274477309    0.40266673263100    2.57540995778170
H          -0.11833254761335   -1.38105317251664    2.19301587964880
H           1.12510820159929   -0.33219085562356    1.37737212177747
N          -0.98453224867245   -1.99888693305999    1.86119993251046
H          -1.20528365277371   -1.61579585457913    0.86942359326815
H          -1.78329978687338   -1.86002099075052    2.47172537239332
H          -0.74148749461262   -2.98198897211705    1.80556761120746
