    26
        -50.46278533  Gyration_radius:  2.54867170858 Dipole_moment: 6.698
 S           0.18672858726141    0.48600255491563   -1.12545622799914
O           0.58489259174835    0.74444445755484    0.26107469976238
O           0.84107857635402   -0.68680688307256   -1.66872581148599
O          -1.27602221944692    0.41525963222705   -1.20980402624788
O           0.60147383193365    1.72439907615829   -1.96256463763943
O          -1.11411147503104   -2.41886150749598    1.77400858807273
H          -0.48644571935132   -3.09720532676829    2.02728525467496
O           3.21132544147851    1.09925824540709    0.33069040952173
H           2.24937152097402    0.91160064272885    0.38159797010560
H           3.33836851709773    1.95583448785849    0.74186099137891
O           2.97023173775333    0.81544760050441   -2.33427863137333
H           2.52809605517528   -0.04722738787214   -2.32208742960519
H           1.55227339891636    1.53106706121827   -2.21568138244176
H           3.32398841613697    0.92890305328566   -1.42788559270928
O          -0.70577743567676    0.10728643284815    2.46099411795211
H          -1.85168494257740    0.59754796743107    1.71533261174185
H          -0.81232736061710   -0.86917175273266    2.36186524168263
H          -0.04875010527005    0.35708554676718    1.77381987178999
O          -1.06603311396353   -2.32923927989146   -0.88652110413281
H          -0.23645068429851   -1.90487082887929   -1.18597007373996
H          -1.12323526999585   -2.41918113251143    0.78662119050138
H          -1.74741871852536   -1.74648194669585   -1.23375805247337
N          -2.59250518018962    0.90390092102563    0.94122646713925
H          -2.06443615260601    0.74373015796247    0.00600295081058
H          -2.84421967017252    1.88212577027573    1.03267143305118
H          -3.41841062721533    0.31515242766359    0.97768119167024
