    26
        -50.46278505  Gyration_radius:  2.54808905639 Dipole_moment: 6.686
 S           0.78736950227821    0.74536213325764    0.59900923857457
O          -0.43914645155714    0.86477668937740   -0.19408956507732
O           1.35464497008554    2.17630073213262    0.78951317736596
O           0.53659416554459    0.16382539553756    1.90194505797983
O           1.79810893887241    0.01121200395279   -0.16994343953697
O          -0.99901977491641   -2.97289343548967   -0.61500268871281
H          -1.71693814484476   -3.30767768855512   -0.07584937034139
O          -2.15450303654846    2.39439348912489    1.12720087065968
H          -1.59249089980617    1.76907112321330    0.62094870417283
H          -2.38065923832620    3.10138057668101    0.52064439980842
O          -1.32023287408128   -0.77132282894428   -2.05409690845300
H          -1.35187721200207   -1.63336147685276   -1.57399373035425
H          -1.20314483696286   -0.09692358406088   -1.34858109433500
H           0.06627087921726   -0.73499266792134   -2.48580662319689
O           0.94228117885675   -2.30696918651037    1.08034863439062
H           1.74438680165096   -2.04712978251829    0.61797820192436
H           0.68588250603993   -1.49033437757262    1.55518147341085
H          -0.26583893173062   -2.76855145973440    0.01416723596649
O          -0.10315619527605    2.59541355983840    2.85688145256674
H           0.01944587635314    1.64549555055533    3.00665236877049
H           0.87678765938433    2.51320405080717    1.60413226970658
H          -0.97645505992481    2.66998697815537    2.41945033044561
N           1.17462527698105   -0.65742726680561   -2.57075590853884
H           1.44798863642916    0.03909438390778   -3.25542953421651
H           1.58463003948253   -1.55918529118391   -2.79170721055532
H           1.48444620476028   -0.34274763040400   -1.57879733246719
