    26
        -50.46278528  Gyration_radius:  2.54861876187 Dipole_moment: 6.700
 S          -0.50137456158821   -0.58179586762399    0.97597763615504
O          -0.96546794545473   -1.92363087992321    1.60092102027362
O           0.24058423390306    0.16590082961393    1.97059335933285
O           0.32092787479043   -0.90722108592268   -0.19262527428446
O          -1.72315102347464    0.10267252696677    0.53994043461118
O           0.71915544833766    2.75434032063099   -1.45972490612072
H           1.59647989887807    3.10812568636509   -1.30693725604603
O           2.39917086756229   -2.34349385666820    0.61143854143587
H           1.69123541270633   -1.76097076558545    0.26116420247870
H           2.36639412395298   -3.14686711246847    0.08950659658814
O           0.41459930871329    0.33890301757256   -2.50534813764270
H           0.64533135594852    1.25950460283518   -2.23357378102782
H           0.57611071370161   -0.20530114471732   -1.70274748622150
H          -1.02967307675840    0.34942562870952   -2.35509674607812
O          -0.40099099942115    2.50646000463516    0.94316142976891
H           0.29330156072028    2.70418968705157   -0.57034015971361
H          -1.32793268613954    2.25884208300898    0.88181969622920
H           0.00087056851415    1.75054402198023    1.41769307289016
O           1.17399655352951   -2.13735022959939    2.99843857265522
H           1.80948989378313   -2.33920611484868    2.28085488135799
H           1.12817278229978   -1.16933298321763    3.02450934428718
H          -0.21345907758905   -2.17037604137746    2.21654301065021
N          -2.08324807985795    0.35017022383163   -1.99149890797328
H          -1.98256407977646    0.21452342921315   -0.91891247468462
H          -2.61503333168519   -0.41678645840837   -2.38850973808023
H          -2.53292574584651    1.23873047789776   -2.18724694085933
