    26
        -50.46278516  Gyration_radius:  2.54852920524 Dipole_moment: 6.700
 S           1.01938647353772    0.22571219473479    0.67088420143870
O           1.61841441065064    0.55063756071287    2.06452602664023
O           1.27689918597174   -1.20063092604335    0.44545276336832
O          -0.42567207454638    0.45503911118139    0.75424548378497
O           1.64808753402752    1.07641682390608   -0.31881072361196
O          -1.28203287146467   -0.94523580419494   -2.77593869712997
H          -1.50672529068601   -0.25762595392353   -3.40439038941668
O          -0.84238936629570    2.99474680354625    1.39040459974934
H          -0.75633645111583    2.06487349269246    1.08859407679375
H          -1.38638393333392    2.97008947155606    2.17933351430379
O          -2.35483862022501   -0.94565531626647   -0.35335298065386
H          -1.78789482946741   -0.26453819772142    0.07212672870289
H          -2.10962159856958   -0.91274421849890   -1.30911525286026
H          -1.56078058939150   -2.06944855526388    0.11060712078446
O           1.31744223638257   -0.66086088819428   -2.27317354360113
H          -0.30976966686375   -0.86197293292548   -2.62561698919897
H           1.46109921646655    0.12941430909381   -1.71387296151142
H           1.65450850400786   -1.37812108359702   -1.72883970446613
O           1.84563758331723    3.04308817968727    1.50571613122474
H           0.89829719146686    3.29211569228437    1.51494793336812
H           1.78679867065266    1.53828149262654    2.02502099471877
H           2.00859913567001    2.71945842664298    0.60656616190211
N          -0.75906976423330   -2.76691228690188    0.44669284079821
H          -0.95862444819665   -3.14864053123648    1.36491361569505
H           0.12397686876787   -2.13656891539600    0.49230373015324
H          -0.61900753659569   -3.51091793884680   -0.22922470108085
