    26
        -50.46294290  Gyration_radius:  2.57127349021 Dipole_moment: 5.001
 S          -0.69993350514654    0.95011496513431   -0.11799212759995
O           0.27709688491221    2.01859915049021   -0.08923682873976
O          -0.22144302358596   -0.21804571151143   -0.85049359024491
O          -1.14028005809186    0.56612955258354    1.23337090534840
O          -1.98480248841758    1.45392880363686   -0.83460972510940
O           2.24375922231819   -1.88086878086955    1.58066874102787
H           3.14989106498205   -1.84094814525849    1.27180448732778
O           0.88120432457421    2.93185673476299   -2.49501036781807
H           0.76389058021856    2.61925437227228   -1.57089077220130
H           0.66077298104309    3.86486344563777   -2.48739188385728
O          -0.92499477587289    1.05589766528326   -3.13974427670680
H          -0.24955757070449    1.76709707772210   -3.15716973101408
H          -0.49950649016223    0.31670184909792   -2.68079788833152
H          -1.75141737328345    1.38959435331978   -1.80551607458706
O           1.44139380660435    0.64547601708834    1.95284659271426
H           1.60290482345575    1.27609044531357    1.23959856560715
H           0.47206416249499    0.63086646267150    1.99950339032222
H           1.98057286038916   -0.95098221710837    1.77188270856369
O           0.26491387598420   -2.65030800943201   -0.00802781468278
H           1.08202047332989   -2.51044639949822    0.52740844157810
H          -0.77835715419356   -2.38491634851361    0.95123769336747
H           0.15272917206376   -1.80847079894538   -0.50661450252847
N          -1.52749930073653   -1.94526311325617    1.65766489735271
H          -2.47004857861792   -2.25382804320624    1.44525794342422
H          -1.43910444948460   -0.88077041205124    1.49254132997891
H          -1.28626947431205   -2.16162291527570    2.61970987690218
