    26
        -50.46294275  Gyration_radius:  2.57135370968 Dipole_moment: 5.000
 S           0.61579379947789    0.21330794606552    0.98924181843064
O           0.51391403734091    0.89200688667390    2.38458222047445
O           0.35812297937993   -1.21470387661656    1.23809943094657
O          -0.43289241172039    0.78314919112241    0.14919705806674
O           1.93880108123874    0.44106479673000    0.44624014331972
O          -0.68343018109066   -1.67052782875229   -2.79415741955185
H          -0.39483915336078   -1.27936053853939   -3.61983981635501
O           2.55157676534836    3.00494555351914    0.25427072733663
H           3.33811070579840    3.13009988503641    0.78796666386732
H           2.39062857303725    2.03580495463839    0.23397569738073
O           0.08896201725199    3.18214722556992    1.30329223681592
H           0.97185954659442    3.37146335723954    0.91973147408652
H          -0.36514403901049    2.64659244850316    0.63618031221969
H           0.35783407185570    1.85567327073018    2.16475902530126
O           1.44139739199957   -1.69459630571872   -1.16698215978689
H           1.94835840087933   -0.87695679890352   -1.08324010662758
H           1.10642486758745   -1.82283706950005   -0.26509867486672
H           0.11952003661617   -1.73067568696762   -2.22649276951162
O          -2.35697859190550   -0.40437551184217   -1.17320763277667
H          -1.70971995373193    0.21424474690518   -0.76280055217441
H          -1.85204527973756   -0.83854305317590   -1.90160150855943
H          -2.29238634683284   -1.39161372255214   -0.12473580958286
N          -2.01257705082695   -2.07712135557389    0.71524953628041
H          -1.03085695188299   -1.73269941295527    1.00795651732814
H          -1.95395179457636   -3.03779320060918    0.39240157008123
H          -2.65648251969796   -1.99869591083745    1.49501200773968
