    26
        -50.45300968  Gyration_radius:  2.43475383395 Dipole_moment: 5.198
 S          -1.16648318747195    0.10217169673412    1.73683528396152
O          -0.87570495421912    1.44695236436276    1.26256674878750
O          -2.09879785328076   -0.56536058414740    0.71321155639732
O           0.14531919118292   -0.71117354234736    1.65598482002753
O          -1.71667516297524    0.01208640719643    3.03662312704003
O           0.03071028200539    0.62552335189019   -2.23813361748491
H           0.26663210941557    1.07480878855647   -3.05052454069048
O           1.49845790682161    2.66563841963429    1.07990713070786
H           0.56192842309827    2.40390696049520    1.17537326266011
H           1.80747888111675    2.88631351491979    1.95972236381189
O          -0.85670629705458   -1.72123587148356   -1.12917528221369
H          -0.05228553289660   -2.17795379096254   -0.75667990516540
H          -1.58901613209991   -1.07343772145702   -0.04124350710396
H          -0.52316631674423   -1.00970817997982   -1.70048275222099
O          -2.05907243680208    1.70459688792974   -1.08279032037965
H          -1.67068187360610    1.77073261386834   -0.18505332236141
H          -0.76005705529731    1.10440346262487   -1.86864191983455
H          -2.77412290492608    1.06792812212468   -1.00149413951424
O           1.68220572191948    0.28219521486766   -0.10508379184171
H           0.76508366235524   -0.32310833800747    0.93684996335642
H           1.15880149025961    0.41953768652476   -0.92019917438660
H           1.82340824435849    1.18023992355791    0.26599911808228
N           1.37952185198166   -2.74845542198705   -0.08289177314599
H           2.06181340716267   -2.01222153759396   -0.22290933672883
H           1.79798442751562   -3.63168671435063   -0.34413032508965
H           1.16342410818137   -2.77269371297497    0.90636033332843
