    26
        -50.46294293  Gyration_radius:  2.57094462324 Dipole_moment: 5.003
 S          -0.20970142226699    0.32448357943487    1.12052230350514
O           0.57495477448248   -0.88351602035558    1.42461025659335
O          -0.86721642923020    0.19373383433980   -0.17598892910875
O          -1.32388401241837    0.36731326322794    2.20440261824266
O           0.58822921253480    1.52944327968313    1.21259877376097
O           1.95915437857824   -0.90803193284979   -2.52909478319530
H           2.17711144164846   -0.23900613641528   -3.17943952017749
O          -0.84498964949403    3.73587129272594    0.95827035052026
H          -0.22634299990070    2.97393443215307    1.00485545765758
H          -0.71096234608577    4.23344874119346    1.76671004964627
O          -2.77837382096879    1.88936347863336    0.73403856569634
H          -2.26541003671717    2.72463864470516    0.77188504431927
H          -2.37363771923401    1.37843250907566    0.01758291551385
H          -2.01899193263786    0.96470124288543    1.80268145490004
O           2.50638081601286    0.14071952018303   -0.12808888350044
H           2.22145940707332   -0.53413669937553   -1.65615364250108
H           2.16354504437854    1.02337887821969    0.06166282434306
H           2.04698866540264   -0.40455126377941    0.53033512186700
O          -0.55238839211915   -1.61077655803668   -2.04818474903200
H           0.34003584507707   -1.37437250731664   -2.39671609011631
H          -0.22973508481420   -2.49637322490748   -0.95654855552950
H          -0.80271137928834   -0.84627075973663   -1.47997000918559
N           0.08029829196099   -2.97630887407642    0.00609641766148
H           0.93739256949112   -3.50673646620102   -0.11503848045849
H          -0.65450619854334   -3.56259879588772    0.38710564511864
H           0.26330096714883   -2.13678343768081    0.66186585347544
