    26
        -50.46294301  Gyration_radius:  2.57085687622 Dipole_moment: 5.003
 S           0.14425729085835   -0.41066869813384    1.10202317031363
O          -0.92842011934720   -1.38063783004450    1.17743517749029
O           0.53566138060115    0.02883131816047    2.54138709162587
O           1.37250299598851   -0.98679788617091    0.53004369312237
O          -0.24620559910659    0.79006143224218    0.36985348466475
O          -0.16593127836036   -0.31808921550330   -3.30600301523574
H          -1.03707568307212   -0.33441520535419   -3.70461813466350
O          -3.05293861336645   -0.46833225605931    2.45823567835172
H          -3.19197751072784   -1.06286463835060    3.19737161106647
H          -2.33572460171362   -0.87023971024744    1.92005612266621
O          -0.18517419312605   -2.12520075017543   -1.33211685030501
H           0.57687230624933   -1.92987425000504   -0.76374028465774
H          -0.92035634299849   -2.09513862502425   -0.70663280183589
H          -0.16630775888438   -1.02823492662380   -2.62300234811388
O           0.67119467795883    1.75781981632906   -1.88457363563970
H           1.91525725719374    1.14674002804723   -1.48788654502563
H           0.31576928314266    1.10558694411184   -2.53440871751066
H           0.19343109311695    1.55382732860868   -1.04785717625201
O          -1.43945179105531    1.66693018605854    2.64199518432372
H          -0.17012712045633    0.69591354024467    2.78260528680357
H          -1.25383340119106    1.75814184206671    1.69573753824930
H          -2.19344316904480    1.04147094469560    2.69376329408052
N           2.73644577983542    0.52521254740887   -1.04834086682456
H           2.22376129545349   -0.10901803105499   -0.33921133352902
H           3.42508592520518    1.09657418987664   -0.57057781688277
H           3.17672789687864   -0.04759810493329   -1.76153782624027
