    26
        -50.46294276  Gyration_radius:  2.57139154593 Dipole_moment: 5.002
 S           0.87369877543551   -0.78167066698701    0.17514078211941
O           1.87878747616356   -1.28499286415240    1.24975033284075
O           0.39551600278360   -1.91174930211529   -0.59366011253031
O          -0.20509805008901   -0.09231541781860    0.87600738551404
O           1.63933447858496    0.16576737386913   -0.65167707156087
O          -1.96102253886339    1.91827040654400   -1.88420888365409
H          -2.84861580946734    1.60431962229985   -2.06236108778772
O          -0.73641474073797   -3.77590592274633    0.89981748982626
H          -0.23371711586765   -4.57817192645224    0.74883949828523
H          -0.38797009394622   -3.11493791060634    0.26171063209994
O          -0.29414059407709   -0.08615373291830   -2.49243071116741
H           0.55682590048257    0.11671768791255   -2.07208973021805
H          -0.49536942889253   -0.96100233747592   -2.13664750976933
H          -1.35486875898415    1.19571711760137   -2.16868465800556
O          -0.04364669956092   -2.00535550374452    2.79265090279679
H           1.28743276492978   -1.64416141356758    1.97265093252630
H          -0.48247343644456   -1.23485580718234    2.40298854398934
H          -0.39744335494168   -2.77605912745372    2.29952129317057
O          -1.10759590084857    2.35010297602810    0.58919909915419
H          -1.56430592638891    2.28655257786447   -0.28329507340809
H          -0.92205713266787    1.41495532537939    0.83607963653175
H           0.24614776373963    2.66442632140405    0.20379333460987
N           1.30681474149813    2.67131346169009   -0.15415674458196
H           1.51887301086429    1.62810052495508   -0.34196033895262
H           1.93892470652498    3.03396896195652    0.55136697511537
H           1.39238395072976    3.19711957565035   -1.01834490692106
