    26
        -50.46294296  Gyration_radius:  2.57121078759 Dipole_moment: 5.002
 S           0.00909514796136   -1.05279990791607   -0.54481416793976
O           0.23845901569228   -1.55243513834357    0.82096407071694
O          -0.72016481100008    0.21092168975467   -0.51076162869578
O           1.23918779548586   -0.95688314025777   -1.30302389411034
O          -0.91904648374178   -2.10747590438776   -1.21140811764326
O           1.25047580571686    2.33433455138604    2.01145094493290
H           1.68808854399642    3.08153887249611    1.60125601363426
O           0.84530585738757   -0.33793579624064   -3.84226805390700
H           1.22298860605672   -1.05679670487134   -4.35190503051889
H           1.09122518463057   -0.51197299052272   -2.90698728834761
O           2.32503715125610    0.12733556591261    0.94423866187586
H           1.69563510496021    1.53030605097686    1.65667650976763
H           1.72023296840818   -0.60555525552232    1.14169283835408
H           2.39185241189855    0.08401808184189   -0.01820485946884
O          -1.29246972337434    1.76919506052046    1.51585315155717
H          -1.16937840568583    1.33283046796276    0.64163772336985
H          -1.30277781564582    0.54735625286130    2.28177917481928
H          -0.40448962745894    2.14290048678440    1.72990300284474
O          -1.69059408633141   -0.40143368413071   -2.96898439818413
H          -0.87504219649305   -0.30791748045774   -3.50609793215567
H          -1.32351918058249   -1.61018783458979   -1.97979361928986
H          -1.58073112168389    0.22109124682759   -2.23518830064548
N          -1.16382914013261   -0.48238140699917    2.69847586891353
H          -0.61003063528581   -0.99708607898935    1.92595922407964
H          -2.05183925496647   -0.94573605529135    2.85834669806492
H          -0.61367112103796   -0.45523096878726    3.55120338797744
