    26
        -50.46294318  Gyration_radius:  2.57084405548 Dipole_moment: 5.003
 S           0.33255698306390    0.36307928573250   -1.07828081451689
O           0.24689909863637    1.79997657890418   -0.91947787709576
O          -0.95640621999582   -0.22798300539866   -1.47404740701716
O           1.30400193300072    0.03702188478319   -2.24793956559808
O           0.85131567494740   -0.29585423877600    0.11634415059898
O          -2.12678448752984   -0.23486079625876    2.54541956649700
H          -1.97909216488042    0.33345910397387    3.30261110543162
O           2.59815643209026    2.92899611923932   -0.49041413041542
H           1.67977399893213    2.59291318295726   -0.58589925967535
H           2.72320716993837    3.55916385113692   -1.20199796003226
O          -0.30958002186893   -1.99082283353268    1.74127835779397
H          -0.95965804184544   -1.40708712445882    2.20009376543280
H          -1.04286356401018   -2.40381274921692    0.57030703434441
H           0.28552903600072   -1.36702465477428    1.26520894758018
O           3.34416723403844    0.36250540208636   -0.72263406864551
H           2.20971986306648    0.13392229358855   -1.83363130258781
H           3.32025416077238    1.33419173997979   -0.59012012744456
H           2.74586741040740    0.00286235897138   -0.05113330599079
O          -2.09803610210625    1.33746430798286    0.37982273292140
H          -1.35865611291935    1.95161944086122    0.28525492382478
H          -1.98205370910546    0.75629995187261   -0.38875980784023
H          -2.17457411358741    0.36178173616483    1.76290689054485
N          -1.56056446249871   -2.49879108625644   -0.41782247694165
H          -1.22035411736338   -3.29605930738186   -0.94458765590373
H          -1.30607313826833   -1.58063968827624   -0.92823737762036
H          -2.56675273890206   -2.55232177393914   -0.29426432764334
