    26
        -50.46294297  Gyration_radius:  2.57135424277 Dipole_moment: 5.005
 S          -0.26540417019818    0.64301770367432    0.95896282744140
O           0.07464010093222    1.97436500475800    0.50182310948746
O           0.89669943070126   -0.06079075203859    1.52627649710410
O          -1.28411410533326    0.75107700389299    2.12887988213547
O          -0.88769191023019   -0.16006285486123   -0.08877840702770
O           2.05652501199443   -1.15877263216426   -2.34519506873807
H           2.01234204189166   -0.75551503401225   -3.21329706315567
O          -2.03279711365132    3.37659058172916   -0.25870448220321
H          -1.19017097237623    2.91426724583119   -0.05427505718915
H          -2.04587341961597    4.15781437670526    0.29686134963107
O          -0.04554429716130   -2.35057138925110   -1.25268120393597
H          -0.52034708050685   -1.54279910426491   -0.94941373180120
H           0.69918229506461   -2.00534548543089   -1.80045915687767
H           0.59973889938362   -2.61556222746320    0.00935428687176
O          -3.22594944881021    1.09128353240934    0.48314534514300
H          -2.15588373434461    0.91362527696674    1.66531091487705
H          -3.02762311136700    1.99171213687102    0.14803030739660
H          -2.70026742667146    0.49584847947333   -0.07109703871834
O           2.29908023765264    0.83545722453314   -0.57622004744956
H           2.08003656988734    0.46761163705451    0.29475571069842
H           2.20645829120016   -0.42083676136521   -1.71004477322953
H           1.68206001260671    1.57492293763855   -0.64733601383478
N           1.09001647511195   -2.57824853983723    1.01519587388455
H           0.61227538358450   -3.16832445704585    1.68783450810940
H           1.00159061502561   -1.54008921738876    1.30299843663206
H           2.07102140530339   -2.83067466637183    0.94807299473339
