    26
        -50.45538174  Gyration_radius:  2.56579507183 Dipole_moment: 4.091
 S          -0.55567830452503   -0.11514653841123   -0.88275512838925
O           0.24278512618818    0.94038407287739   -1.50146353821161
O          -1.84342104501811    0.32918252393654   -0.40872216088812
O          -0.74121496005425   -1.21184254500507   -1.95418270796101
O           0.22835290649016   -0.73204086104829    0.21585599190138
O           1.46398164409986    2.42779283683696    1.88259266367546
H           1.97444128748628    3.21964235832126    1.70146668564747
O           2.82835697436337    1.00032798188457   -1.52689953743876
H           1.84541167298596    1.05301598443469   -1.65539050260198
H           3.14683076842513    0.35553260228521   -2.16124775517644
O          -2.94159191489320   -2.05335304542360   -0.99622820357790
H          -2.57999224613578   -2.51699642958812   -0.20071157878873
H          -3.05260974863036   -1.13308381313436   -0.71304315554443
H          -1.61409292169006   -1.66257713312286   -1.71224215005076
O          -0.62851716255782    2.63965900964286    0.33324413848214
H          -0.25115883482444    2.29120843638697   -0.49442627745888
H          -1.39003183297296    2.06005590216029    0.46970848988553
H           0.60310841018622    2.53573032325487    1.39066603057543
O           2.36758251296757    0.28579426080063    0.86998371677782
H           1.44393524649365   -0.21478242764739    0.62700686580207
H           2.71723599519066    0.57573645464838   -0.04727315054685
H           2.06275470858457    1.14659001846272    1.35675119471102
N          -1.53397845153457   -2.81676018370474    1.16476794805977
H          -1.04409300012925   -3.70056698100046    1.22360461414388
H          -1.89955841256905   -2.60576719650687    2.08487054476609
H          -0.84883838794004   -2.09773561131812    0.93406699218246
