    26
        -50.45444079  Gyration_radius:  2.55475878408 Dipole_moment: 4.688
 S          -0.16988162547986   -0.82309606434133   -1.14179559873212
O           1.23587788616494   -1.10220537197484   -0.94995088259182
O          -0.45122576335283    0.51009871984729   -1.59211033702679
O          -0.76759755204824   -1.83381955342731   -2.12883457823063
O          -0.92184651649182   -1.12766662405697    0.14996955196600
O           1.35278407775468    2.18500909956049    1.05258663276244
H           2.06897039806331    2.57430546786355    1.55639320952190
O          -2.42656015243469    1.43229174347988    2.06392684463298
H          -3.09894515708594    0.85289214951711    1.70221100162513
H          -2.11121601614978    1.98933605685496    1.31125299526349
O          -1.22613975285802    2.59858586361627   -0.00146201105485
H          -0.35303867827693    2.75172402515304    0.38623736839216
H          -1.08771306670766    1.91041043860307   -0.67329383186624
O          -0.12225573288258    0.17505446097093    2.09074396075664
H           0.47651844528682    0.87863708767699    1.75558990812075
H          -0.97982053594133    0.63813850255123    2.29072130821053
H          -0.53306922159641   -0.59298533338108    1.00867168574920
O           2.20356981519967    1.36056359057240   -1.29562809774655
H           2.06620156369257    0.40121911999201   -1.17857736482828
H           1.48172696435924    1.63160337683467   -1.87238236431466
H           1.73962450484520    1.90350066302784    0.18156323183025
N           0.35139576732713   -3.78899766540042   -0.90605809280550
H           1.09150355880332   -3.13192942677548   -0.67467370638290
H          -0.13835386397301   -4.03585283041563   -0.05627543524900
H          -0.43577869152052   -2.73263744230840   -1.76970760884060
H           0.75526934541407   -4.62418005382937   -1.30911778910711
