    26
        -50.46742646  Gyration_radius:  2.4022058103 Dipole_moment: 4.780
 S           0.45999737826453    0.07956873340319   -1.65759469667291
O          -0.52309937319486    0.95993677277458   -1.02635086349775
O           1.75411728309132    0.70587563611695   -1.77628710359997
O           0.59642599476792   -1.18237070594812   -0.72306679121988
O          -0.06882300139986   -0.50424837901245   -2.88792674026928
O          -0.78231437890246    0.10339037316504    2.45179082631351
H          -1.13773274955947    0.28218326982290    3.32296815923600
O           2.50379416818349    1.75295065793024    0.48105924241759
H           3.40671253962677    2.05629558788389    0.37511807865124
H           2.22588058938427    1.41854051111117   -0.41227035170415
O          -2.25938469916665   -0.54311974850644    0.17498543906513
H          -1.84116653316081   -0.58474053417905    1.05177148497314
H          -1.73952003088198    0.15686123078087   -0.29045272756975
O          -0.11271642038956    2.31586524316290    1.21971865741517
H          -0.59358461652426    0.99382746968855    2.03935344643226
H           0.85160990879859    2.38656176288067    1.17834983768132
H          -0.36021369332136    1.99362424325519    0.32929831538782
O           1.69123971920132   -0.61685105230736    1.52251488535403
H           1.08853052325066   -0.98139933944707    0.13535436326382
H           2.08557067644483    0.25417018418896    1.32300140272119
H           0.86867138277871   -0.44667156372778    2.01657093317403
N          -1.64774351897025   -2.15252444923489   -1.77820275690506
H          -1.96240802325360   -1.59535412376210   -0.90814545551846
H          -1.00059254701191   -1.45510681944850   -2.34349152093674
H          -1.06477754777243   -2.93154847698345   -1.48549691446334
H          -2.43847301027629   -2.46571646360939   -2.33256912972761
