    26
        -50.45444081  Gyration_radius:  2.55471660003 Dipole_moment: 4.688
 S           0.15831653858679    0.54296351275821   -1.30012834897732
O           0.30473107261650    0.64740402803558   -2.82352205929843
O          -0.80465078713368    1.51634317087545   -0.83526824495094
O          -0.41467277443676   -0.85808579478456   -1.11139163435310
O           1.45085007809270    0.65107012110382   -0.68612074278802
O           0.25884469076855    0.49123718463241    2.72104407171199
H          -0.09669364604787    0.75565919161625    3.57073441773293
O           2.35040078747662   -0.86381263058263    1.40872509706391
H           2.19185047613367   -0.36494978640895    0.59012360004204
H           1.82466464582702   -0.41319676466884    2.08446003816382
O           0.97042247322344   -3.12766745054426    1.21436478539617
H           1.62101993569696   -2.39353742659927    1.33286272537291
H           1.09636652632707   -3.45277042937215    0.32156462872468
O           0.60692913564229    2.58157974829415    1.16317855692761
H           1.45553531504107    2.38251746002754    0.75401959838736
H          -0.04660810818409    2.36548454142008    0.47100822894076
H           0.37076272401119    1.32342473238521    2.18952693811728
O          -0.99140861246066   -1.38353693629360    1.23259390381741
H          -0.60858466928811   -0.68008762139236    1.80224598467943
H          -0.71483787136099   -1.06465985214405   -0.09077000358714
H          -0.38191575537426   -2.16279034686832    1.33819262331636
N          -2.23956770390532    0.69462733583138   -3.13072479757173
H          -2.27201767625248    1.15654667172745   -2.22595051915917
H          -0.66501163729794    0.65159155037867   -3.14990861554447
H          -2.65043832995680   -0.22496532613628   -3.03857002465096
H          -2.77428684793867    1.22961111673577   -3.80229021765078
