    26
        -50.45569021  Gyration_radius:  2.4944506424 Dipole_moment: 4.709
 S          -0.90053082695062    0.35225349317461   -0.54898003913972
O          -2.13402868784323   -0.39496196889258   -0.81732872397509
O          -0.37148427513137    0.91607813296652   -1.79122794210362
O          -1.21431253058719    1.51990698463335    0.39396710322350
O           0.09609941488839   -0.51457958472330    0.08230632887300
O           2.05235987609941    1.44425534301371    2.05250249443240
H           2.63998736610213    2.13915707043137    2.35357372485990
O           0.07501596698351   -1.53813781686858    2.52050173482624
H           1.00061331839815   -1.52082493865148    2.77467993036594
H           0.06016455963741   -1.25495277654378    1.58219651879586
O           0.49749947508162   -2.59690790715646   -1.46695894837726
H           0.48119253495417   -1.80996968568850   -0.86792471398963
H           0.23526602969161   -3.33953176138088   -0.91896189409768
O           1.38608194768786    2.36625348625218   -0.39765362977576
H           1.87623355142499    1.63155563300754    1.10460204582698
H           0.86681908274160    1.78349181040352   -0.98274564740908
H           0.77548058983181    3.06675505117245   -0.15352125284287
O          -0.50744480756955    1.07627637595491    2.76541150430766
H           0.44456328594641    1.29053105548437    2.64481461470077
H          -0.98933572144228    1.32353858297612    1.39311224939049
H          -0.51747559509006    0.10053045577857    2.86687173880352
N          -1.18349977878384   -1.24024347745350   -2.98115522454574
H          -1.84004731462201   -1.02462112729371   -2.13450790101512
H          -0.68168106034014   -0.32777289142346   -3.00117103684079
H          -0.50736485352263   -1.96158371522578   -2.62022275642973
H          -1.64017155757048   -1.48649585396732   -3.85218029786462
