    26
        -50.45895656  Gyration_radius:  2.39175907867 Dipole_moment: 7.103
 S           1.04981609428672   -0.18214160427166   -1.17338448739457
O           1.25364669475636   -0.59782726131052   -2.53446004611595
O           0.80758110778104   -1.50659790423966   -0.37233781131144
O           2.15261609860673    0.52965158152316   -0.55234858304810
O          -0.19146559481770    0.60779242434512   -1.01591472662536
O          -1.35446391661436    1.49411777142036    1.53857745756124
H          -1.45490741683873    2.03571797137660    2.32361703657475
O           2.20672110275928    0.33394928863789    2.13974514109424
H           2.37762290160583    0.27706180922327    1.17973465977282
H           2.13417458472526    1.27505439553205    2.31915399530346
O          -0.88975821142212   -2.08634310773260   -2.76772620945515
H          -1.18434268725493   -1.89527552555656   -3.66042683126497
H          -0.02072893566941   -1.62086685614070   -2.67473507029538
O           0.89884123795453    2.61614910881783    0.54458535105879
H           0.64521301836463    3.19376534560264   -0.17699547705582
H          -0.59176971471466    1.87588547809418    1.04537139103066
H           1.38240959107548    1.87628227671006    0.11609275284153
O          -0.17233665726372   -0.86973495400016    1.92323321056246
H           0.48745480584943   -1.29552686009246    0.55328877378783
H           0.69423024890743   -0.56981669229058    2.27079771684767
H          -0.68776243175293   -0.03818417177592    1.80995494116243
N          -1.95425448972525   -1.11077596910454   -0.54733401228894
H          -1.27156797317939   -0.24096169533263   -0.68718487379457
H          -2.92916306954148   -0.83198506589711   -0.52472316502723
H          -1.70572384262805   -1.68938741308787   -1.39183071391918
H          -1.68208254524321   -1.58000234039657    0.31524957000745
