    26
        -50.46218803  Gyration_radius:  2.39347811913 Dipole_moment: 7.365
 S          -1.40302545942493   -0.52224003390359   -0.31025390902573
O          -0.25101840135369   -1.25750189795885   -1.07120630169299
O          -0.80172696006510    0.72597370599758    0.18901556503989
O          -2.37028330033454   -0.23611792902553   -1.37483099224585
O          -1.90688533554977   -1.33945769506913    0.75364385760637
O           1.97457930228863    1.33627625544046    1.40702703307786
H           1.61170676989418    1.98480638008596    0.79848961497221
O           0.99250881355792    1.31548607022426   -1.56548683761239
H           0.32235333185363    1.18665125746787   -0.84099112218156
H           1.71178203590098    0.71053932565800   -1.35949259307120
O           0.10440603027989   -1.92024271176069    2.44543611979181
H           0.06671604258733   -1.06723634610928    2.90470330417267
H          -0.70023619480884   -1.92851116724697    1.89375471967142
O          -0.38297013587452    0.80458904862903    2.79262768217088
H          -0.63573385310277    0.76384851464482    1.84190217022330
H          -1.18013478109066    1.03446775610939    3.27129649033058
H           1.32318160935409    1.24616501602412    2.11865993757015
O           1.72467558504613   -1.20917761127138    0.49527500105487
H           1.28980272723163   -1.63830132650897    1.27483185517157
H           0.56808020759605   -1.29507426010145   -0.45314525602434
H           1.93046256785801   -0.29975633377099    0.80252378538026
N          -0.79035514286635    0.33142525780168   -3.24617165442276
H          -1.56643513311162    0.09567237126324   -2.46045432671024
H          -0.48280613255297   -0.55132230297558   -3.64375490918391
H          -1.15730755838079    0.95111873874146   -3.96139368033815
H           0.00866334505052    0.77791991760531   -2.70200554372886
