    26
        -50.44930422  Gyration_radius:  2.54911583023 Dipole_moment: 3.608
 S          -0.09690193672521    0.66603423321201    1.54305368730654
O          -0.47921967750838    1.16600218529825    2.96206495587729
O           0.64895875949431   -0.56996906386855    1.65840372269093
O          -1.33964173217806    0.47810725778327    0.79093291271468
O           0.70888525042779    1.73912848127888    0.94365249569953
O           2.56325705303390    0.62453916466632   -1.94839832922099
H           3.34572007080902    0.93958062232967   -1.49183559947038
O          -1.44572135439552    0.62278532571503   -1.72747209165543
H          -1.43385525938502    0.51239816086243   -0.71973603242378
H          -2.31428673021397    0.97072261611954   -1.93746795796440
O          -0.41508139135403   -1.90566532052192   -2.24217925228324
H          -0.07089181985431   -1.88741113925850   -3.13710505876610
H          -0.87387692711202   -1.06142519490526   -2.10006094718487
O           0.62979216964271    2.13920825917728   -1.47395676444401
H          -0.19080635490647    1.61452613594805   -1.73084094158653
H           0.64982642820849    2.05904362435793   -0.39357342981005
H           1.46376311023771    1.55224626802398   -1.75515273884260
O           1.73243451774010   -1.39648643566425   -0.61830730989381
H           1.40017911100977   -1.13218472318458    0.26619519582755
H           0.96510101525399   -1.76298319392367   -1.09637731839859
H           2.27351244715610   -0.21169148235752   -1.44815819099126
N          -1.63987843917084   -1.15487292223559    3.21353477294507
H          -1.99020764449313   -1.83764666942085    3.87393975394152
H          -0.78563881840551   -1.50729381390794    2.79117946142501
H          -2.31340879385023   -1.04754572651445    2.46490735451916
H          -0.99201305347146    0.39085336097958    3.31275763999063
