    26
        -50.46218801  Gyration_radius:  2.39348984752 Dipole_moment: 7.371
 S           0.75114568636641    1.09270982758537    0.75991407433231
O           2.13731531006800    0.76471738112392    0.91633785535289
O           0.38485028909360    2.43992737177931    1.20864913117852
O           0.28072580865636    0.86217989460624   -0.61647882967321
O          -0.13766430114393    0.16994924396634    1.65745430022359
O          -0.59037806832490   -1.70772671632488   -2.09721868392546
H          -1.10124253683624   -0.91178760066307   -2.26456509438584
O          -2.22422243150563    0.31494654093171   -0.35195945328834
H          -2.22113146641439   -0.59543087587049   -0.04060878662679
H          -1.27493507917380    0.52538485008467   -0.56456009349415
O           2.51398950844616   -1.81641359426395    0.25303714555972
H           2.55278438880902   -0.92610761487907    0.65017425748902
H           2.52432949458947   -1.64950944290544   -0.70192713155963
O           1.92887224793603   -0.51817361983905   -2.14621560090503
H           2.62392263142641    0.03498256183410   -2.50453083372504
H           0.32324112221025   -1.49237139058317   -2.33735005095590
H           1.38600586438385    0.06424817743994   -1.56703964031703
O          -0.08873070718047   -2.09216015358157    0.54360961168269
H          -0.11677326590227   -0.77674431701349    1.26066289872208
H          -0.34525244182107   -2.04367535746918   -0.40277197834400
H           0.89406949827744   -2.21322650991189    0.52456315467596
N          -2.08017145843632    2.11060202547175    1.57818400585948
H          -2.65507468997640    2.94271726365561    1.49276981480846
H          -0.98509075793416    2.34364944793283    1.43333802066773
H          -2.18086914926324    1.68371997346303    2.49447509056056
H          -2.29971548640217    1.39359263340608    0.82205682608666
