    26
        -50.46255547  Gyration_radius:  2.40888458102 Dipole_moment: 7.242
 S           0.70120772381285    1.48257389096455   -0.82894201615393
O          -0.65712583199763    1.11894877620773   -0.39402310837938
O           1.68234878372934    0.61033619292817    0.04776229647648
O           0.90044199114609    1.03558721332886   -2.21227139382156
O           1.04578229046951    2.84521694769606   -0.57527495945913
O           0.64207980079534    0.05757855713620    3.11501971434306
H           0.52954366520283    0.25482718376368    4.04578504455801
O          -2.44850430369824   -0.55710327255792   -1.39072975497348
H          -1.96651246344465    0.24989831943867   -1.10741856811362
H          -2.63220089091666   -1.03146684601829   -0.57384273257352
O          -0.94662363372279   -0.94999026705067    1.21921678255935
H          -0.89850643764244   -0.12330483309558    0.68743479484053
H          -0.47313416378319   -0.71768745871509    2.04512485273777
O           0.24104016295134    2.43902370150431    1.92354311657317
H           0.70913165368984    2.67637834991184    1.10087732334778
H          -0.68070127691949    2.38286205243532    1.65787584812934
H           0.66761993967128    0.92914044658126    2.65946236016080
O           0.98561968934331   -2.01278955481195   -0.09567570154889
H           0.18820989247807   -1.73094271658043    0.45744558790365
H           1.49468242700884   -0.34027981181409   -0.07188837252864
H           1.58027547182141   -2.46693309143789    0.50298284582426
N          -0.13549051433630   -1.26462517759348   -2.46484917550525
H          -0.07196055545298   -1.67392012080733   -3.39005971982954
H           0.35628704247605   -1.83027182243500   -1.75992110991886
H           0.32461542867461   -0.26048226702883   -2.43947405173842
H          -1.13812589134813   -1.12257441197528   -2.15815992289318
