    26
        -50.45514546  Gyration_radius:  2.45836707163 Dipole_moment: 5.598
 S           0.65216247729358    1.85416586222128    0.08731016021944
O           1.93671378848273    2.48092367302042    0.08509178796737
O           0.51633378550161    0.69338207238639    0.92564660883184
O          -0.42965818718809    2.87354560689344    0.45179262099727
O           0.30481715137339    1.44175194399848   -1.36954797871183
O           1.75409706871921   -2.01900950932428   -0.66680282658572
H           2.32372254338134   -2.65911745671670   -1.09656587596881
O           0.42239753478688   -1.81816819416093    1.79152489121834
H           0.58448365079059   -0.86051649973410    1.77440275875532
H           0.93596552447326   -2.14353990802411    1.03656550437605
O          -1.99118060062170   -1.42900955297711    0.84506233325613
H          -2.50726095080350   -2.22960501645125    0.95015707804201
H          -1.11780367358890   -1.59846160685298    1.29869503282810
O          -0.62093643758180   -0.91851394153113   -1.44348456136247
H          -1.19936713760356   -1.05728641499285   -0.66607252667879
H          -0.11324361128062    0.50514884799659   -1.41171047283732
H           0.19708444279716   -1.41268043286335   -1.24083385767905
O           2.96703816894766    0.31798097319606   -1.12001346736351
H           2.22980889190656   -1.15614094112656   -0.71011736189494
H           2.69509141959284    0.58939141243906   -2.00063705311925
H           2.77841898606814    1.08811417151726   -0.55346981407697
N          -2.53941962251339    1.44353510173985    0.61113341494459
H          -3.18484003882498    1.75935370102716    1.32299339601083
H          -1.32373873156028    2.32748032041048    0.55014622621432
H          -2.25481788066354    0.49008673050648    0.83022886773686
H          -3.01586859170883    1.43718905735460   -0.28149488448241
