    26
        -50.46195501  Gyration_radius:  2.47315706485 Dipole_moment: 4.187
 S          -0.80578508928866    0.46504247120127    0.22741154944977
O          -1.95332672240547   -0.41742115300156    0.20086079248452
O          -0.54339192002756    1.12706958881637   -1.03909046984420
O          -1.05316253613861    1.58796603842505    1.26698583991768
O           0.40722409688424   -0.25127904685464    0.67494602470141
O          -1.04433988799872   -2.32598504627624   -1.39638517977343
H          -1.80192079886217   -2.82623891513667   -1.70520918638930
H          -1.39375879985035   -1.67027813992320   -0.75664595227395
O           2.25229533948593   -0.24731593499510   -1.02096350037388
H           1.58108391228137   -0.35456890631760   -0.24872623348946
H           2.31439047560522    0.81969762499097   -1.08829268019463
O          -0.08687906906121   -1.39236088534265    3.03077042296924
H           0.68277771635754   -1.21543575167113    3.57378880560097
H           0.13281744404055   -1.07750878649432    2.12990813408982
O           0.48835906202947   -0.63035912398792   -2.74991784904422
H          -0.00009532443451   -1.42150703842058   -2.43287410609203
H          -0.01369210131731    0.11611555616978   -2.36188285317430
H           1.65070741797225   -0.51033490785653   -1.84600912673092
O          -2.35495881907209    0.03222493565851    2.82435606645579
H          -2.65491409391586   -0.38088314172881    2.00078641425952
H          -1.63356406739333   -0.54738054414990    3.14478086410189
H          -1.57729319463931    1.12950550201282    1.99126480803507
N           1.98018782813320    2.26569622281374   -1.10725037209068
H           2.20357256131944    2.78886605827070   -1.94391156638880
H           2.26033355277502    2.80846658641419   -0.30101655790000
H           0.96333301752599    2.12820674738147   -1.06768406831000
