    26
        -50.45514698  Gyration_radius:  2.45761458501 Dipole_moment: 5.609
 S          -1.88419372463134   -0.45039661027157   -0.35086145432935
O          -2.85989543352221    0.69854813241997   -0.08484351227788
O          -0.92056422726434   -0.51556678977684    0.71475841266183
O          -2.60533085458783   -1.65466032381474   -0.62037071590845
O          -1.14320565832213   -0.02061908508433   -1.64694519146057
O           1.94841237774525   -1.90103504599703   -0.42400472094958
H           2.61250276483297   -2.49826559569473   -0.77216406794504
O           1.35031021813499   -0.77445377155294    2.07277083746651
H           0.40713618664415   -0.82802380567139    1.84666349916752
H           1.77988056733669   -1.25271525818418    1.34732699949019
O           1.38762334306916    1.74099987650655    1.33400049016494
H           2.19045183514025    2.15458697062931    1.65457535090804
H           1.37771989880807    0.81848525560237    1.71602796060928
O           1.25342657819516    0.63907565814887   -1.14381552156451
H           1.27643813544493    1.12811436468715   -0.29597329603128
H           1.61864047530399   -0.24292860679244   -0.93619515743228
H          -0.18416241893707    0.29114676221543   -1.45375821611836
O          -0.33702262623289   -2.80320788771409   -1.47329727631879
H          -0.39043367410902   -2.42507116874321   -2.35491487413759
H           1.07608240378836   -2.27348380790860   -0.69402369256594
H          -1.18978939314253   -2.58305701421065   -1.05619238070962
N          -1.30001212669148    2.62014510241012    0.54567745958826
H          -1.69692998891808    3.26447084967094    1.21677185970118
H          -0.45393189196315    2.21586623801778    0.94391633723720
H          -2.26766602840724    1.51832030973510    0.20306902081498
H          -1.04548673764792    3.13372526164160   -0.28819814904582
