    26
        -50.45234192  Gyration_radius:  2.54394152737 Dipole_moment: 2.488
 S           0.33560105878558    0.21772871770162   -1.55143697859094
O           0.58829740373152    0.29551551995214   -3.07860164982464
O           0.03828105562612   -1.20082823823107   -1.24541908508621
O           1.54449605152134    0.64782997046262   -0.88168163277481
O          -0.81524085889378    1.04483378293756   -1.22273255809016
O          -1.47376835841788   -0.75532337667418    2.21248716723311
H          -2.35642807560668   -0.93729796303107    1.88709501566136
O           1.87680672031104    1.76116938774943    1.40329109262451
H           1.75751334950989    1.38627970421670    0.48820657519935
H           2.59114586530658    2.39633041265616    1.33214763546147
O           2.19164972327161   -0.69930493592793    2.38877638418540
H           1.84292785100677   -0.67102073605435    3.28265990105257
H           2.16513607521677    0.22464055895956    2.04943039685083
O          -0.91273894969307    1.61643219284638    1.35573097582801
H           0.00499851074900    1.85916405650383    1.54493375256873
H          -0.95249539903760    1.49643777858064    0.38056682781322
H          -1.27895869772603    0.19832909646899    1.95813015823392
O           0.41710385637692   -1.98125888500428    1.04006255070687
H          -0.38959168726186   -1.57080039539371    1.53013811631353
H           0.31102259388200   -1.65442718639150   -0.00489766352288
H           1.22630511154390   -1.53568227320023    1.46500273680862
N          -1.88515091371735   -0.47531939542335   -3.35369170427374
H          -0.28809588931888    0.00110713592226   -3.44536622984089
H          -1.84168715563795   -1.41483208185766   -2.97993610769577
H          -2.02317934524279    0.15811681509568   -2.57098465218955
H          -2.67394986627186   -0.40781967285396   -3.98391101463496
