    26
        -50.45234217  Gyration_radius:  2.54425427396 Dipole_moment: 2.489
 S          -1.36816119205547    0.45748871275674    0.70034114718125
O          -1.59506552478468    0.38796359310029   -0.73516702378606
O          -0.91024835197153   -0.85957993382503    1.20062237667667
O          -0.43771962457388    1.50267528880792    1.07037861082114
O          -2.71570047204423    0.75278933796573    1.40666987988067
O           1.70319390215508   -1.60358040390384   -1.46719335199110
H           1.14663245697857   -2.26528200656312   -1.88011234389235
O           3.06272806656439    0.65030277850406    1.09402722130329
H           2.56418982312248    1.38494711263991    0.66809751263893
H           3.77189158375603    0.41667308504114    0.49075127257977
O           1.58000808310440    2.46326482094054   -0.18518558546371
H           1.62940606098128    3.40384715601797   -0.00737638694602
H           0.76382727324658    2.14238470021473    0.28718172336074
O           1.47551649152548   -1.37210131462283    1.05230670834582
H           0.41251497324890   -1.12151511201480    1.18453059135393
H           1.58342493919220   -1.55883234163019    0.04591210516955
H           2.05124457280361   -0.55124929692834    1.22187702152268
O           0.64600779687965    0.66437699438786   -2.10854755071919
H           1.35175822696547   -0.71474650499816   -1.78151123159226
H          -0.24549821708544    0.59175761216782   -1.70003521323661
H           1.07564030128270    1.40247930640886   -1.65293165341821
N          -3.62670722092181   -1.35513887077030    0.17646519381293
H          -3.28358147298401    0.00268245064831    1.08361809354210
H          -3.08831852384587   -2.09040092863257    0.61677877299532
H          -4.48022863610725   -1.75027865440568   -0.19680880920708
H          -3.06675530541936   -0.98092760126825   -0.58468908097057
