    26
        -50.45234058  Gyration_radius:  2.54407982635 Dipole_moment: 2.491
 S           0.42569129160294   -0.52173315420659    1.44744583036964
O           1.23665271946932   -1.30653483166350    0.54091953693604
O          -1.01591952404019   -0.72947702244162    1.17856418893241
O           0.68643450160231   -1.04122335995573    2.88436446630663
O           0.73774443904946    0.89827388791132    1.39758854098679
O          -1.43037310469868    1.44281368535728   -1.88885027377767
H          -1.93323348252094    2.09561514829745   -1.39988417730569
O           2.26596436991576   -0.68778139750619   -1.72368482990588
H           3.13612225932327   -1.08517044073666   -1.78401055037608
H           1.92675354422914   -0.91816076467639   -0.81593630797223
O           0.07617631110078   -1.76532587957314   -2.80770549247689
H          -0.09647728317188   -1.26140210878744   -3.60627726126592
H           0.93292282174857   -1.43757475446482   -2.45042230514071
O          -1.72094746528541   -0.96999510758789   -1.14997826741207
H          -1.70234728786360    0.01129299060324   -1.46004973955475
H          -1.01409387939444   -1.42823699122495   -1.71966389876051
H          -1.39906821871235   -0.93652887349957   -0.09962168953328
O           1.01239446587045    1.72927170131645   -1.09634016481808
H           1.59254707932794    1.05068631117229   -1.47031688922405
H          -0.46657055429795    1.60307712367179   -1.64937631967539
H           0.95981653068430    1.52286821879547   -0.13635169173923
N          -0.93414450532498    0.83897072834630    3.67642390194849
H           0.10895047119528   -0.43983022644066    3.42691362121808
H          -1.81418076478981    0.52617413537406    3.28638528221529
H          -1.12059476478496    1.44433430333469    4.46561613308609
H          -0.45022000024260    1.36559665861259    2.95424835697367
