    26
        -50.46121087  Gyration_radius:  2.41339092004 Dipole_moment: 9.244
 S           1.72815751109215   -0.72034369535830   -0.74057285695323
O           1.24078267788790   -2.08547686547661   -0.87105333334773
O           3.10246893411743   -0.48351593970625   -1.02408668191544
O           0.83661891021417    0.18785243489056   -1.52214815258133
O           1.50292160251470   -0.31294451236516    0.76997328632344
O          -1.77328924763868    1.26787288688035    1.11660867953556
H          -2.36878760261794    1.87046732625332    1.56369838097741
O           2.24221102248286    2.20906149681479   -0.58396068450009
H           1.71319369578809    1.57308649459426   -1.09807069830307
H           3.06239521878477    1.73071124412216   -0.42733759357356
O          -1.23315615835281   -2.58647799186231   -0.57522198394330
H          -1.37142629048621   -3.51252979772315   -0.77755033292568
H          -0.24493186529486   -2.42543742502316   -0.72052393603658
O           0.60563979577015    2.21022317978523    1.53397610417915
H          -0.85354369356740    1.66468242386129    1.23109437179132
H           1.04416767709557    1.45253222779109    1.93603006958095
H           1.15927892475022    2.39582780601919    0.73920406730746
O          -0.73543672099340   -1.24069633337371    1.76051915024803
H          -1.05587679889195   -1.85561700136412    1.08027013567289
H           0.70956546597979   -0.76924865663594    1.15236764268144
H          -1.25665799407347   -0.42571453639614    1.68537787633988
N          -1.65540535604025   -0.02421697476411   -1.25530244672011
H          -1.79429236502107   -1.03658215194193   -1.08737029410185
H          -2.17663199796272    0.30254698977256   -2.06027665935034
H          -1.87198653516551    0.52969478053837   -0.40317429781466
H          -0.55597881036652    0.08424257066653   -1.42246981257084
