    26
        -50.46742658  Gyration_radius:  2.40213913143 Dipole_moment: 4.781
 S           0.87592336668508    0.20900302685605   -1.46722101077220
O           0.53005303884547    0.71542490863556   -2.79314950493744
O           0.71083166019842    1.24426100517339   -0.44708906154751
O          -0.25812498388319   -0.85582622951341   -1.21236454154773
O           2.15554356747191   -0.45012291612911   -1.37148692262193
O          -1.19872447834501   -0.11320568165395    2.27591586060040
H          -1.57100990424121   -0.01368913584027    3.15265655540372
O          -1.82475235684282    1.44711515053712    0.05024510003308
H          -1.88445118263113    0.81338311475499    0.78535493063260
H          -0.85052002366075    1.55072255560251   -0.08018754088673
O           2.63806102748421   -1.21776980124092    1.06412721722477
H           3.44202586546918   -1.73927553237849    1.05055614173361
H           2.51647181701087   -0.88701253152218    0.13522107277872
O           0.09095622787466   -2.14825200926341    0.97199894504917
H          -0.09070716117312   -1.41602209493971   -0.38939834860112
H           1.02592585466333   -1.94037655061794    1.16330003264079
H          -0.44810215080242   -1.56812731779019    1.53973811537269
O           1.21037816241246    0.90634212921182    2.13938907357567
H          -0.30563977136429    0.33439619791925    2.29979909021949
H           1.86253007398413    0.19420660571597    2.07436839880921
H           1.11639673658284    1.21991861636567    1.21705714608589
N          -1.98461331175947    0.74852100654769   -2.45263670773556
H          -0.90216579904498    0.78117548422387   -2.68102467465287
H          -2.28891268849087   -0.21250917797375   -2.57985947196981
H          -2.05481366955932    1.00982266904361   -1.40690019753614
H          -2.51255991688693    1.38789648829088   -3.03840968736266
