    26
        -50.46742655  Gyration_radius:  2.40214806499 Dipole_moment: 4.782
 S           0.57598571280831    0.33965268523614   -1.58649759198057
O           0.67968288688765   -0.43964685911517   -2.81781256927155
O           1.27088883408945   -0.60708743507039   -0.53507141482060
O           1.26941778811247    1.60466527724388   -1.59491025807015
O          -0.81789545462111    0.47714740921646   -1.16462479660691
O          -1.06199192866915   -0.38345898761683    2.31440048972430
H          -1.58762236542732   -0.45264994436469    3.11195412565036
O           0.91656835248336    2.88552022903912    0.63868378976276
H           1.02483692518827    2.45443492909153   -0.24988024610603
H           1.48063419000827    3.66016688509483    0.62149896321014
O          -1.52144856327717   -1.76244679351309   -0.06606122897358
H          -1.43920654901776   -0.88924579340674   -0.52162289524781
H          -1.29619931164792   -1.55387943698791    0.85657277158824
O          -1.61766304655053    1.80752432782890    0.99042854912955
H          -1.36303554295763    0.45041424117679    1.85343334145608
H          -0.88000630374235    2.42953934124811    1.06519230852116
H          -1.49346890311755    1.40515037537628    0.10694395274664
O           1.47897119932680    0.48583311044904    1.77263625622652
H           0.64657949959317    0.14019638565633    2.14281414990529
H           1.41852209058930   -0.15852333996476    0.35715933594759
H           1.32038701659064    1.42332067811280    1.54908288996522
N           0.19937674860404   -2.70428229523529   -1.77775810506863
H          -0.16794773249601   -3.41882652299432   -2.39842821053020
H           0.40111303543364   -1.75807692013115   -2.31505869059158
H          -0.50851840339117   -2.43905309180614   -1.00613346176416
H           1.07203981520261   -2.99638844455049   -1.34694145479771
