    26
        -50.45891845  Gyration_radius:  2.6821496027 Dipole_moment: 5.206
 S           0.26412389920106    0.91000386357868   -0.52433946315442
O           0.08194751804273    0.92815645409673   -1.97531881136481
O           1.58744521373173    0.42199764427405   -0.14853013413004
O          -0.08685049438584    2.14986432221092    0.11343972089509
O          -0.76032678966132   -0.19823201910045   -0.02675102168988
O          -0.52605585664771    1.42545885517944    3.85412159611378
H          -1.18496878950560    1.00612507043817    4.40990708365515
O           2.58705197850061   -1.68814920899384   -1.26967366890498
H           2.23405364293832   -0.91242061718713   -0.75745172712363
H           3.50356243464239   -1.47810891748813   -1.45492144195307
O          -1.67460821645055   -2.28406836597431   -1.49929115774542
H          -1.41469825164568   -1.61030762560308   -0.84048290399521
H          -2.58242681335766   -2.08672747574559   -1.73642674024791
O          -1.84736948406634    2.75268352316523    1.95417115951755
H          -1.77949974672406    3.70791022649122    2.00523609383397
H          -1.24943482939334    2.49332275687795    1.21575916403074
H          -1.02640155802307    1.96163630455535    3.19425350565194
O           0.46630288702178   -0.39266588574344    2.17160834072570
H           0.18570120073471    0.28552409555713    2.83279265068978
H          -0.41216745112714   -0.36101673263523    0.90873149282055
H           1.22085773524689   -0.02647768814360    1.68842518274143
N           0.48605762092696   -1.42548687259440   -2.85626450495815
H          -0.32698952379509   -1.96068918690307   -2.48440940804256
H           0.57674407771390   -1.52434609630538   -3.86102495968161
H           0.31434117390120   -0.38585776502311   -2.56304686852665
H           1.36360843218579   -1.70812864898426   -2.35051316915502
