    26
        -50.46259445  Gyration_radius:  2.4218691251 Dipole_moment: 8.958
 S           1.48676602410961   -0.84716955020964   -0.85737553717196
O           2.88052016922826   -1.11457066067797   -0.70090939361764
O           0.72865818985014   -1.23637779644968    0.47385039140282
O           1.22345346379928    0.61195138382779   -1.02523623423976
O           0.77957146835421   -1.59651799438967   -1.87848693746396
O          -1.59292924639208    1.17063380557826    1.51129668663670
H          -2.18800141952815    1.48020804858940    2.19511499372425
O           3.17663886042267    1.30605171813951    0.61850236846796
H           3.70569155277189    0.50990252397226    0.49046663867031
H           2.53815029830455    1.26125410352104   -0.11685522536682
O          -1.75599461516250   -1.41076652740733   -1.72656331232013
H          -0.75454550166523   -1.54019622594957   -1.76127714050302
H          -2.10396377078421   -1.94899125393515   -2.43896553682723
O           1.20898791312264    0.56435666830144    2.22454627841441
H           0.44159657252805    1.12324908207446    2.04921069774697
H           1.00073880803652   -0.60024754785521    1.20615860824501
H           1.99397844827579    0.98429071574894    1.79556051846204
O          -1.92261616535498   -1.40064922938702    1.04545505979235
H          -1.72984503829769    0.18553671395655    1.44981573356611
H          -2.12663814822894   -1.51533028441072    0.10365125736211
H          -0.98806420230165   -1.65098254227601    1.10691920202849
N          -1.23497823012724    1.15783467636672   -1.16597353769992
H          -0.14309859698521    0.96212383015917   -1.15308473434066
H          -1.66048365143911    0.26301009089581   -1.48364799900149
H          -1.50140279861965    1.35143332883707   -0.18073396429589
H          -1.46219037391704    1.92996293298010   -1.78143888167019
