    26
        -50.45677551  Gyration_radius:  2.55895503489 Dipole_moment: 7.389
 S           0.07611956155207    0.75820997117290    0.80856506863107
O           0.63909408548389    1.36666749693871   -0.41657936931311
O           0.73547517584284    1.27402839625673    1.98718229241828
O          -1.36366395948139    0.81062656107082    0.85114102722509
O           0.51423487306048   -0.75324816275017    0.66633367729573
O          -2.18850011994654   -2.09947424468142   -1.24418932321770
H          -1.92976809752510   -2.87527386224703   -1.74211635746336
O           3.30246821970491    1.11495956918050    2.08411849511738
H           3.60150786654856    2.00452980316278    2.28223800081594
H           2.30903224102303    1.14322589906380    2.18223495870032
O          -3.14293626430901    1.09583489454025   -1.19385421513794
H          -3.67040780190624    0.30221064601399   -1.07426908664020
H          -2.57275309674722    1.15510890526586   -0.40619542532962
O          -0.87876099243327    0.01783933581076   -2.21178691908640
H          -0.28521598042957    0.50018491306099   -1.61267252310173
H          -1.66357383382830   -1.34735156342287   -1.61366072663516
H          -1.70593044915415    0.53698246015311   -2.18308309441079
O          -1.69060634208339   -1.80269751921138    1.36319799593204
H          -1.98850513347331   -2.05464198978295    0.45999056148386
H          -0.27166438938873   -1.29309275899650    1.00272234522990
H          -1.99156656963478   -0.88869973859432    1.47756802759571
N           2.87416669641934    0.19400244746012   -0.32038927224416
H           2.55886839711677   -0.76716254489721   -0.19157566126113
H           3.25123006238621    0.55582618569411    0.61001775841821
H           3.53457576910514    0.27888815870350   -1.08632617102519
H           1.94708010262285    0.77251673117072   -0.47861205399018
