    26
        -50.45491430  Gyration_radius:  2.43187076205 Dipole_moment: 6.961
 S           1.69841191622222   -0.93655842073620   -0.09647468173157
O           2.96483533532604   -1.48810576149572   -0.42329743490307
O           0.83785973972949   -2.01255665786585    0.66646596613559
O           1.78989969208083    0.18895291968229    0.88339705793365
O           0.88917214352148   -0.50887118109814   -1.23579296945563
O          -2.07521138965129    1.10822831531149    0.31126321879688
H          -2.78868619154107    1.74636026742155    0.32637324156559
O           1.70203489885309    2.76886109798795    0.22738530075151
H           1.83861963788540    1.83873509039055    0.50442667038117
H           2.51817457101681    3.04292956313219   -0.19355009621834
O          -0.72572097258981   -2.27979586939690   -2.36323292274751
H          -0.21664321039876   -3.07128734241108   -2.54353884567611
H          -0.07548633092838   -1.58917364554810   -2.11271957322775
O          -0.29835148646621    1.85402114878602   -1.35192637282550
H           0.14798284619207    0.99032433736179   -1.48158278822134
H          -1.41444630581237    1.43651184054718   -0.39378512407442
H           0.34875604143093    2.38814031042715   -0.84974586542063
O          -1.66760978083006   -1.66152845907759    0.05864545029115
H          -1.94764377962985   -0.73722368718613   -0.02676691949228
H          -1.57712763526537   -1.99106817603562   -0.86032836177335
H          -0.11297949956880   -1.89723438571878    0.39373824752402
N          -0.38694612966342    0.16502507318934    2.14072919000030
H           0.60732224429432    0.20006242790610    1.60770245925561
H          -0.32309136096596    0.63884451239122    3.03604742253940
H          -1.10083746139642    0.62269112228564    1.51596174476003
H          -0.63228752184400   -0.81628445025278    2.26060599583339
