    26
        -50.45567461  Gyration_radius:  2.46088665401 Dipole_moment: 5.086
 S          -0.91438818711728    1.03771004164655   -1.36951829291641
O          -2.00665020851891    1.99527505077984   -0.88479213620946
O           0.39345036741993    1.79761277113060   -1.07103468804084
O          -0.94327222355793   -0.16162703692344   -0.56895733571959
O          -1.04346399412234    0.81815874009780   -2.77762202425291
O           1.83154311667681   -1.87542666350211   -0.81251442180021
H           2.66550913557675   -2.12405319656485   -1.21465195329962
O          -0.30923723421910   -2.22825848698679    0.98457116376987
H          -0.76267249195214   -1.61424170593924    0.38156657251900
H           0.52806170957580   -2.41058017288137    0.53617924539022
O           0.15727453389847   -0.19266679124219    2.58281094850179
H           0.49893306015033   -0.49672114523757    3.42496982780808
H          -0.09167095320029   -1.00892970135608    2.06989217970891
O           0.17560202435012   -1.56462103406005   -2.87210133637412
H          -0.57817385177930   -2.14410786908647   -2.74056199540827
H          -0.20408351009146   -0.66784120382743   -2.95662412937769
H           1.20274825907811   -1.72967279806171   -1.56258101558731
O           1.81946344283967    0.47433554378557    0.52764808046331
H           1.00324589571331    1.28139145733279   -0.41506691937025
H           1.25520508828963    0.31179040033180    1.31024871732739
H           1.87835788221102   -0.38730143455962    0.06145393187424
N          -1.29268930108694    2.18200268688518    1.56453719434010
H          -0.52037074976905    2.83623125501035    1.57520204142798
H          -1.80704885573656    2.10260807570572    0.13579541479986
H          -0.94260345121114    1.27482538830382    1.86653973242619
H          -1.99306952341799    2.49410780922775    2.22461118800747
