    26
        -50.45567462  Gyration_radius:  2.46080775947 Dipole_moment: 5.087
 S          -1.77830769721769   -0.33497747523112   -0.71759101948590
O          -1.88055672839057   -0.50180780476655   -2.23632925893142
O          -0.55063000153547   -0.93390154024308   -0.25464649187352
O          -1.68444066749057    1.19181888339076   -0.52534542967260
O          -2.96125522284937   -0.83650582218192   -0.08777244209542
O           0.28842486591258    0.11667462997161    2.72629883780028
H           0.13190800180571    0.53123681185845    3.57638055881656
O           2.41545147016936    0.49609723216886   -0.80763974437179
H           2.27620972132276   -0.28980602133721   -0.21239316758970
H           3.34016078715599    0.73467734921555   -0.72797624186827
O           1.80033649032200   -1.40594957152070    0.90095537436684
H           1.57427142532395   -0.95676173781031    1.72713752208135
H           0.94412440293679   -1.49671013566197    0.44822971210912
O           0.48120285691949    1.79132015296023    0.61091667544794
H           1.18661256972376    1.40684595636044    0.05254786593209
H          -0.80436181988146    1.47291204511392   -0.06166538043270
H           0.43944653636933    1.22403199709758    1.41077205059791
O          -1.88355759935037   -1.36233687923626    2.30688301626411
H          -1.60507393555158   -2.27058228514875    2.16983670777370
H          -0.51954475721093   -0.42189470902768    2.53550490338537
H          -2.38775002158029   -1.12623645120563    1.50341513098060
N           0.31759878780437    0.62840668902907   -2.89521473619317
H           0.13690599253616    1.62344149845170   -2.85242227609511
H           1.01745967026719    0.40382685174062   -2.19056927009323
H          -0.98855486902440   -0.08835758786938   -2.59201909748303
H           0.69391973148993    0.40453792388471   -3.80729376937384
