    26
        -50.45589994  Gyration_radius:  2.51665416922 Dipole_moment: 0.999
 S           0.24410743251385   -0.22042745440112   -0.88088497229821
O           0.04707121756431   -1.04761561359726    0.33912785345209
O           0.46733395945050   -1.18261315754925   -2.04691197747967
O          -0.94759629849758    0.57887873389157   -1.13288495467366
O           1.43781441109029    0.59698608312405   -0.74310977876041
O           0.06885600871648    2.12656918643964    2.37943651872358
H          -0.83913076436639    2.13662973371692    2.68728814634494
O           3.30556214266570    0.31530696364914    1.03084597439067
H           3.71683868733162    1.17766319795941    1.11783075064292
H           2.72075536559047    0.36276922509785    0.23214582925814
O          -2.67492400923403   -1.13298449456884   -0.03736985170708
H          -1.96575178666118   -1.45585600959590    0.53076409015270
H          -2.28082428403762   -0.34669560619641   -0.45794997727126
O          -0.02830947755985    2.82470879908444   -0.13115906752404
H           0.04509725724034    2.46385887716526    1.43755559626134
H           0.85640554995538    2.68609535856301   -0.48464947696122
H          -0.54481640463082    2.09790654355683   -0.54200742801167
O           1.16636710832966   -0.16998069396911    2.32984388777836
H           0.65564467578336   -0.62284183794389    1.47052767026582
H           2.10927662742112   -0.01523093625448    1.97105038985773
H           0.73359473453594    0.75754725806464    2.42651256206544
N          -1.73081728640002   -2.44660895260734   -2.32497842344991
H          -1.64963158643823   -3.45294349079488   -2.27164631634023
H          -2.20891878373304   -2.20073610706455   -3.18120393852472
H          -2.28362917757138   -2.10855292571858   -1.52857191471873
H          -0.42037529898564   -1.72183269001861   -2.18960120149209
