    26
        -50.45567465  Gyration_radius:  2.460791753 Dipole_moment: 5.086
 S          -1.69001523919557   -0.58757224496813    0.76665955646657
O          -1.73487350058652   -2.02184711043608    1.30122984499519
O          -2.79337712914582    0.16343820774377    1.28261551782759
O          -0.39390048854777   -0.01764431471186    1.04136483197914
O          -1.83754931923650   -0.76339656883528   -0.75790806892404
O           0.21182435309425    2.61650942149735   -0.79940301838809
H          -0.02434929897666    3.34721178682449   -1.37329490435786
O           1.97804691087644    1.17622407439080    0.85632996829557
H           1.66837814950765    1.87680964946278    0.26581541999873
H           1.15567904864285    0.77242644749019    1.18328499931460
O           2.32508508694167   -0.94349963480747   -0.66079426504751
H           2.29755954406955   -0.17727097931911   -0.02560062122235
H           3.19956320079454   -0.93798208614683   -1.05276755505990
O          -1.69490175832243    2.59552567495927    1.05651210589888
H          -2.21352032704380    1.76795922287395    1.09734218573755
H          -1.27586242136374    2.67104607900838    1.91671882796262
H          -0.49864099710627    2.57229153372050   -0.11199017096374
O           0.18542272221108    0.16260302122332   -1.93711656636961
H          -1.02131971275596   -0.39397391046381   -1.27356759766795
H           0.21586753913635    1.07430234421894   -1.57492905500179
H           0.95297602658007   -0.30138556076378   -1.54615204522522
N           0.27402708157894   -2.96676774751406    0.03021820616636
H          -0.91097700838978   -2.48043828928841    0.84974119766819
H          -0.05991933749405   -3.15643362703085   -0.90632819174812
H           0.98599926007911   -2.24130071053929   -0.02905640379338
H           0.69877762465625   -3.80683466858177    0.40107581143765
