    26
        -50.45589990  Gyration_radius:  2.51656579426 Dipole_moment: 1.004
 S           0.01970701748186    0.31295087487192   -0.88677571961598
O           0.34905062596493    0.20972139283530   -2.37548218802228
O           0.73841845511431   -0.79304451778922   -0.20017473905855
O           0.50687113195536    1.59688227196961   -0.41092751023423
O          -1.41671406169152    0.16110932658480   -0.69616634094963
O          -0.36790602917816    0.66469068434616    3.09970809857445
H          -0.95979661753642   -0.02701990407507    3.40059450451984
O           2.66267094412731    2.01755575633650    0.96417052190522
H           2.51517165413597    2.83814219388742    1.43874300253182
H           1.93095555746774    1.94205986081430    0.30011344153962
O          -1.39793879079885   -2.49858153484392   -0.49437342090344
H          -1.68170048810298   -1.56601588087983   -0.50319544105134
H          -0.49217330550361   -2.44848034682050   -0.16725202287471
O          -1.66047434334000    1.93433029705714    1.22433939496832
H          -1.77664217090209    1.24708313600876    0.53297554537586
H          -0.88587601416203    1.20028253362088    2.43160913289622
H          -1.02765747692204    2.53839255048021    0.82238855280826
O           1.74402243971853   -0.15255058328767    1.93639847596132
H           1.33102493458613   -0.49693425874767    0.97998268428396
H           2.25260681654032    0.69067617559873    1.66770649317972
H           0.92427680945972    0.15804152963338    2.47336495991862
N          -0.69056266515552   -1.98500275101217   -3.15683103633507
H          -1.03923029138110   -2.39020800897955   -2.28030229463218
H          -1.47171905293153   -1.83886021615402   -3.78181277073627
H          -0.06450283536642   -0.68521549744949   -2.73139410179553
H          -0.04188224358234   -2.63000506401566   -3.58740721226132
