    26
        -50.45971449  Gyration_radius:  2.42840479983 Dipole_moment: 6.566
 S          -0.65738087290838    2.02321799763696   -0.64747456062777
O          -1.66858331324351    1.09630076289541   -0.06506933876609
O           0.13666959090021    1.27046605422472   -1.64047910234817
O          -1.22454027059991    3.22448597011324   -1.14881379233805
O           0.29767750296373    2.37939474348973    0.53570153099045
O           0.12026279075617   -1.48553221385046    2.02769283064677
H           0.11539573275856   -2.04029679193036    2.80843318560339
O           2.03650762366070   -0.46124118818718   -1.41421355153144
H           2.71574409313121   -0.27071925537221   -2.06182496146648
H           1.33977097199889    0.24190013697872   -1.52747578048730
O           0.24752060675109   -2.38274427603918   -0.56185606514929
H           1.03919238882498   -1.90957777119237   -0.86943112614303
H           0.16835885235243   -2.17139099072138    0.38712999274663
O          -1.24816969324595    0.69719444445678    2.47813648715568
H          -0.67215198865804    1.42859568068677    2.71568136311355
H          -1.53598335403135    0.89144787076240    1.55551755975962
H          -0.48201959290148   -0.71588333870704    2.22627661658602
O           1.89984690393808    0.41420655278762    1.14924043926133
H           0.92021533738851    1.62924000628250    0.74743000843375
H           1.38001378180812   -0.29835402982322    1.56010637260650
H           2.18585830072031    0.06640721931324    0.28702090760139
N          -1.45357723846708   -0.76627613493480   -1.73988757623561
H          -1.76533241236946   -0.09779628451784   -0.94659592773986
H          -0.87244698265561   -1.54950294700904   -1.30804201920981
H          -2.21386276677967   -1.09853638856117   -2.32130062361171
H          -0.80898597197615   -0.11500582875614   -2.22590287882692
