    26
        -50.46042123  Gyration_radius:  2.39381443699 Dipole_moment: 5.477
 S           0.24903192720410   -0.93651144566426   -1.18835649979200
O          -1.22920173621576   -0.51082602984663   -0.84083531699924
O           0.55946295654433   -2.11298078515827   -0.39681651875135
O           0.24398293884407   -1.11669085501798   -2.61514084390603
O           1.09402373655509    0.19779808839986   -0.77129002529187
O           1.26810576730959    0.85675480475309    2.28480824506005
H           1.35213631308971    0.62355094368657    3.21136384225582
O          -1.14708998108452    1.04841721829453   -3.13899804163611
H          -0.55383457574408    0.25951090381019   -3.05341491998059
H          -2.02970580595784    0.67559745446562   -3.19947855819682
O          -0.95107185512725   -2.09109660349559    1.82401412533152
H          -0.37601029533972   -2.15583955832009    1.03384021165431
H          -1.33850286939669   -2.96001382500549    1.93469843877035
O          -1.23662772478606    0.57623037150606    1.50634285812562
H          -1.42378087388347   -0.27918830771800    1.92544454550345
H          -0.29873114864330    0.76101959487976    1.77407230274758
H          -1.25720015993212   -0.15507081102669    0.09179143765102
O           2.58321242580850   -1.14358107215239    1.08891258924474
H           3.06706574489391   -0.67117533868823    0.40735398556211
H           1.75647660451962    0.15034191089133    1.79411540651697
H           1.87715577965955   -1.61570570991503    0.60550822119854
N          -0.46087331045623    2.16879400535553   -0.84326748990455
H           0.33332842954309    1.40632672319817   -0.74048282297121
H          -0.08727284669831    3.11156926434032   -0.85785304698511
H          -0.88758257556640    1.88260221365873   -1.77167280441606
H          -1.10649686512961    2.03016684480149   -0.06465934076798
