    26
        -50.45971455  Gyration_radius:  2.42850032454 Dipole_moment: 6.566
 S          -0.02774813330598   -1.45526955993392   -1.68160385819629
O           0.06904391113033   -2.25826777315821   -2.84861038111865
O          -0.26336657156062   -0.01419490808968   -1.97981115688210
O          -1.27855823038277   -1.91169228746167   -0.86540364159706
O           1.14123831128154   -1.55243725222370   -0.78336468980307
O          -1.44283668585594    1.69788475153527    1.17107351858027
H          -2.00309811635503    2.36464616171624    1.56966893950631
O           1.29522500766580    1.61790530128878    1.32574266273007
H           0.33018149475747    1.75815794338260    1.30080632186250
H           1.42054508893280    0.73371705454292    1.71012459752689
O           1.45285558810264   -1.10654826936645    1.73911988517721
H           1.34537789248070   -1.33295284898947    0.77481691722077
H           1.99224600203441   -1.80125372846794    2.11801096039503
O          -2.54885916100607    0.80097191013403   -1.02264840691521
H          -1.86835419024151    1.45617726247385    0.30217926598067
H          -1.73337342934678    0.53711077758697   -1.50955466204640
H          -3.01971963951308   -0.02181981639313   -0.86622595046700
O          -1.25321398469548   -1.01157974211519    1.58322945116888
H          -1.24779330955581   -1.57998167433502    0.07480205560006
H          -0.32978109158784   -1.12739734514049    1.86615649764714
H          -1.40400123690649   -0.05043642222058    1.56682450159815
N           1.91825649628180    0.89147251840756   -1.11942573800708
H           2.58740115282803    1.39671067053470   -1.68818486681864
H           0.95703542020651    0.74363887540778   -1.59691880572626
H           2.15927986718986   -0.10727743960524   -0.97807791800494
H           1.75201753741676    1.33271584053007   -0.16272548939816
