    26
        -50.45567463  Gyration_radius:  2.46082597249 Dipole_moment: 5.086
 S           0.87038310450376   -1.17415034800360   -1.28569245454100
O           1.00191256311562    0.01848313126077   -0.48534907017826
O          -0.55350023916419   -1.73593415373652   -1.10190601291854
O           1.14992483937025   -0.99251935782361   -2.67726925140993
O           1.76864841215730   -2.27173332094525   -0.70824281287214
O          -1.46805853192962    2.10701749536794   -0.96733413157763
H          -2.22025495389494    2.46727157130326   -1.44002409165062
O           0.53961159696232    2.17319643977382    1.00767581605980
H           0.95021274163577    1.49333541993982    0.44599222773680
H          -0.22163058613559    2.46757649803532    0.48877372032356
O          -0.34867497785999    0.24495761308583    2.55958269888862
H          -0.71426892632001    0.60510404816997    3.36892326299447
H           0.05752827522327    1.01095759943960    2.07008353887296
O           0.29671144871703    1.53838348202471   -2.87593607135741
H           0.54993625831959    0.59564672955961   -2.92795349524953
H          -0.80466713999195    1.86391936795464   -1.66023886159943
H           1.11152231736732    2.00602512718778   -2.67932086599270
O          -1.90684565502750   -0.20394082692785    0.36834411136843
H          -1.80184070254998    0.65157075766209   -0.10110118103761
H          -1.13687020681755   -1.13035485467842   -0.50062614360938
H          -1.39427037555026   -0.11389314577840    1.19684874641621
N           0.82831816439738   -2.32442247927643    1.67021443101447
H           1.46918774310586   -2.33692086763130    0.29126177428536
H           0.58749528220443   -1.37284697922072    1.94089502684559
H          -0.02796602446883   -2.86131363223284    1.61400510540821
H           1.41745556262104   -2.72541531451172    2.38839399378842
