    26
        -50.46042120  Gyration_radius:  2.3936896383 Dipole_moment: 5.476
 S          -0.99987101639394    1.00693712534363   -0.58150619993340
O          -1.20449128587931    0.31312501704987   -1.84001562038583
O          -1.23320764894880    0.09165011008811    0.55085752831445
O           0.52630561097845    1.39645845395278   -0.50091432064109
O          -1.69702175129125    2.25511757643632   -0.42582070293451
O           0.19213456513250   -2.69494285700758    0.50696927630544
H           0.48494880550336   -3.50482797656469    0.08471658356465
O           1.10474710860877   -0.83916529577055   -2.58504701598626
H           1.26082003244479   -0.63435579791244   -3.50747866368361
H           0.23628967697742   -0.44144639470470   -2.36852661036706
O          -0.19453551750053    3.14009990985909    1.53796023625276
H           0.43139032459630    3.67762663174613    1.04712616716839
H          -0.86374407046523    2.86470776159292    0.86119242744183
O           1.89200905398161   -0.74335081381673   -0.00305932855060
H           1.26556671084164   -1.46360452104723    0.26944344049362
H           2.02131077782844   -0.90712335365294   -0.95117837745074
H           1.07026897039820    0.56783819951198   -0.38056284554782
O          -1.99192434439895   -2.08830991056311   -0.91525275803200
H          -0.63087165619513   -2.43381095472853    0.02456763288492
H          -2.59436298825523   -1.80192514310074   -0.22473971975411
H          -1.73583177991739   -1.26435875964302   -1.37421655544394
N           0.56659225673609    0.69382254518975    2.19590159703023
H          -0.25889381375491    0.30013812995396    1.57459070661578
H           0.42883868947807    1.73775219023291    2.06486134545462
H           0.48690663902976    0.40674302927285    3.16535603502981
H           1.43662665042622    0.36520508812630    1.77477575212569
