    26
        -50.46513935  Gyration_radius:  2.3915977288 Dipole_moment: 3.138
 S           0.94801379423965   -0.94985209802877   -0.55551543363788
O           1.24851060705423    0.47935146787237   -0.54722928583202
O           1.37542712163582   -1.57033305249517   -1.79957068294193
O           1.72631752986480   -1.58561430494176    0.63287099232361
O          -0.47961426645049   -1.19378102208802   -0.33484062612528
O          -0.49916391032524    1.13337296083900    2.64953726458382
H          -0.62217695325159    1.63195257041236    3.45847455146165
O          -0.59615183213618    1.64926273543440   -2.00090974790631
H          -1.26259930502751    1.63071428396353   -1.27217339450411
H           0.23963868489893    1.44554947029822   -1.52652500039812
O          -1.93972880701449    0.98049112221662    0.18194914814613
H          -1.58579704117200    1.27400383137008    1.03269434105284
H          -1.49711299158282    0.12427377878560    0.02069565251671
O           2.02372164805060    1.18918992353077    1.85655681676500
H           2.54460148945593    0.42996904324686    2.12827214554833
H           1.81854502055356    1.03529058006560    0.90743326800749
H           0.44416081392698    1.26283321299142    2.37975403281476
O          -0.24510136584426   -1.56440788957237    2.29436493711306
H          -0.75436020246944   -1.65805536428214    1.47458220482475
H           1.06786617574420   -1.65022717712658    1.38806069920284
H          -0.39503169944040   -0.64017307469007    2.57675692060224
N          -0.72914229411952   -0.70327179987023   -3.02727794230442
H          -1.47766176921878   -1.19262890713199   -2.54035564497221
H          -0.81346593670766   -0.79394010962597   -4.03515284483965
H          -0.73206947063678    0.35447385482291   -2.68693871318485
H           0.19237499996927   -1.11844405599585   -2.65551364831581
