    26
        -50.46042121  Gyration_radius:  2.39373884967 Dipole_moment: 5.477
 S           0.41177209963624   -1.35732778516420   -0.58213077039841
O           0.56568091030739   -0.89962308338389   -1.95099579278961
O           0.62781491422145   -2.76102986637896   -0.35587532369687
O           1.20635826275487   -0.51513860740373    0.33099574736466
O          -1.09262385361894   -1.12037810386365   -0.17204743411964
O           0.91134258075430    2.59209409044230    0.09804634918529
H           0.84263872439154    3.41513995997038   -0.38959534363123
O          -0.61193942241584   -2.83876869217360    1.95789442410324
H          -0.05830693327803   -2.89765847943853    1.13831222655925
H          -1.48240624061104   -3.13063085405188    1.67723057132138
O          -1.27563479670285    0.99164070889467   -2.44842107435063
H          -1.69841187648301    0.78946058105999   -3.28366322725367
H          -0.58450674369542    0.30802579249126   -2.32873670036106
O           2.35168779659388    1.07795594903187   -1.57353454653062
H           1.72000292360249    0.38271871698131   -1.84313160494957
H           1.45434263979026    1.99583799765481   -0.47454034526297
H           2.94859950248331    0.63764895644440   -0.96395443846166
O          -1.44539540288182    1.41288541375903    0.21433161116754
H          -1.71567788899848    1.53778344637145   -0.70965908628516
H          -1.25934629573234   -0.13930260332496   -0.08964475468624
H          -0.55738152762567    1.85490262675246    0.25387069726112
N          -0.27137919161628   -0.24436247498683    2.34373194575543
H          -0.55240962562614   -1.26749827482994    2.35754944030214
H           0.47861528192465   -0.25012744576630    1.53135110608923
H          -1.03507423467055    0.35974297998259    2.03694846811855
H           0.12163839742494    0.06600903090137    3.22566785555225
