    26
        -50.45301688  Gyration_radius:  2.45772822396 Dipole_moment: 2.641
 S           0.85108145205159   -0.90652340496483   -0.80147091294701
O           0.74791774745378   -2.32686053564057   -1.42473780408726
O           1.63573989852303   -1.05816924252750    0.42445808656511
O           1.46935998085448   -0.00837601323253   -1.75652926979147
O          -0.51096227325098   -0.47576280269678   -0.47900156851997
O           0.69943840872282    1.81106218972199    2.30623179297138
H           1.41254938199335    2.22473431221231    2.79564843191048
O          -1.86291941216329    1.44884463416773    0.97554780340054
H          -1.38856334497350    0.93092902898582    0.30376735232876
H          -1.18991659123065    1.85385575732564    1.53171924535605
O          -1.83206856243775   -1.18965556067307    1.67002516608379
H          -1.46480766087861   -1.18873963163208    0.75687363772694
H          -2.27966850916001   -0.32603769493667    1.72314754687270
O           1.14416087723714    2.11408569137518   -0.25687567213832
H           0.93471049594273    1.90371485127383    1.34330401075053
H           1.38756541931885    1.34010755468650   -0.81362527199388
H           0.37650150042152    2.50815094372484   -0.67852050503104
O           0.47144463130852   -0.74610674743519    2.56775203833502
H          -0.52509058394164   -0.99002785564805    2.32102394696958
H           1.02028274390459   -0.97815825891342    1.67510698143390
H           0.53183360410841    0.26504322528564    2.59196061189711
N          -0.41140198664270   -1.23394446468578   -3.49523970686588
H           0.27854579608387   -2.15951818415973   -2.28666478749014
H           0.25190478895342   -0.49264024319022   -3.28616872413665
H          -0.41690394263629   -1.40186915375360   -4.49311169446845
H          -1.33073383956196   -0.91813839467417   -3.21462075513342
