    26
        -50.46115530  Gyration_radius:  2.63806744249 Dipole_moment: 7.512
 S          -0.15943257509186   -0.56960732439784   -0.52987458360640
O          -0.69762548657259   -1.70212728951310    0.23285118114049
O           0.19804722910856   -1.12685861689464   -1.91670906586687
O          -1.11278773230959    0.50915544076314   -0.66814593410203
O           1.09577835311046   -0.10175113929367    0.09608011232772
O          -0.36486716266806   -0.38098377029220    3.90499459734377
H          -0.89307896117737   -0.76544373702894    4.60651818701394
O          -1.72099751972127    1.73869856184669   -2.95019185447044
H          -2.44232951831421    1.21853256543253   -3.30803130374909
H          -1.56358096393743    1.39607927112017   -2.04593065926551
O           2.08056677130066    1.94745886106263   -1.27765121741857
H           3.02999548455418    1.82599750497067   -1.22422989011229
H           1.68247827973116    1.26759061556003   -0.69457171970530
O          -2.00183579009064   -0.03856694219438    1.86480293522503
H          -1.95188257579665    0.71213451631689    1.26196166280605
H          -1.73141499260887   -0.78454104590311    1.29798168041636
H          -1.00813657691850   -0.10803087052409    3.20167003113430
O           0.77942720739844    0.86086453116820   -3.36344163057148
H           0.45884795767422   -0.35425484467018   -2.55059127806106
H          -0.09629574522844    1.30153368192927   -3.41116926655583
H           1.30474043260799    1.40161869706095   -2.73601952572727
N           1.05636273367516   -1.68116824710673    2.08432497706823
H           0.62115035970401   -1.23192281059594    2.93376218763920
H           1.36822071618213   -0.91737832206373    1.40942338738529
H           1.78365626306688   -2.35037482747541    2.30847635811956
H           0.28499379232519   -2.06665448924568    1.47371063157264
