    26
        -50.46041498  Gyration_radius:  2.42318912441 Dipole_moment: 7.837
 S           1.28751435550786   -0.25978159782631   -0.24279503774643
O           0.18930787792946   -1.07494570493459    0.28550742013605
O           2.10272704147092   -1.01032525522453   -1.19221396208901
O           0.72579086934987    0.93810582650967   -0.89424908971662
O           2.18906598044759    0.17079434902829    0.90720675688570
O          -0.86011591592208   -0.90925046750015    2.87397092754848
H          -0.39299812765060   -1.33957407442787    2.14410039566457
O          -0.46541672614886    2.60268364396967    0.73382410120561
H          -0.01057983444153    2.02072632872959    0.07717895162091
H          -0.17478341199128    3.49743820317851    0.55251275184815
O          -1.07032861647567   -2.16730409948291   -1.76145299008721
H          -1.03061831428475   -3.12209280061286   -1.68699144629577
H          -0.67310605411713   -1.81282126624624   -0.93107839571825
O           0.75712043490966    1.18103034670458    2.70044135699855
H           0.21285093813272    1.80074045731629    2.17702676519034
H           0.16134204872496    0.43013382783507    2.95400038968148
H           1.64125486774251    0.59482171399451    1.68922588364178
O          -2.16633991557765    0.33468655263298    0.80029791568442
H          -1.91720793312151    1.26565019430026    0.80064068730893
H          -1.39699550868074   -0.14101653957922    0.45057484824657
H          -1.64738592755263   -0.52433261833965    2.45118894811267
N           0.49436906915847   -0.49098116338234   -3.04681208669867
H          -0.26250024732745   -1.18444154202741   -2.82097274996438
H           0.30751790320824    0.37927293858214   -2.50628981093229
H           1.35465714412771   -0.83609892761747   -2.47615295264810
H           0.64485799242214   -0.34311830539632   -4.03868956773713
