    26
        -50.46521621  Gyration_radius:  2.3844791063 Dipole_moment: 4.703
 S           1.15979796421848   -0.70751162895077   -1.07612268458942
O           1.01681504486814   -1.59846680502377   -2.22675464772527
O           0.09904695298286    0.29449184881839   -1.09835195168399
O           0.85894978531356   -1.64237811183768    0.16341427224048
O           2.47030432140355   -0.13224247507612   -0.89262504723352
O          -1.62483276974051    0.74586596339151    1.74925915753596
H          -2.27787827756466    1.17473435800398    2.30315113842603
O           2.34398320952368    1.73108429567430    0.91885158229215
H           2.40938318383204    1.08362478902110    0.16879770431858
H           3.24823418227566    1.95580253144508    1.14427288685708
O          -1.85419656629412   -1.55576555180264    0.22606140147805
H          -1.91498928064326   -0.71155358542571    0.71215025337988
H          -0.92706563597513   -1.82985398864412    0.34282167826862
O          -0.29046810052080    2.47297727480777    0.30606961618469
H           0.59879288398124    2.59131744827553    0.66571562277091
H          -0.16791807491262    1.76948309617272   -0.36734091793138
H          -1.19735745224145    1.46250472585293    1.20052584700300
O           0.93334782677928   -0.15825202364964    2.24556841459732
H           0.00376542200865    0.13288798392465    2.24240033284736
H           0.98039302439380   -1.10941936483050    1.01524283286436
H           1.46230565626117    0.60074891581836    1.92766334718251
N          -1.50204494813633   -1.32692830556457   -2.36309780278515
H          -1.60574510373311   -0.35152870138505   -2.63252719458186
H          -0.41524284659414   -1.52990837567873   -2.38701365206689
H          -1.77236846479135   -1.41181934262727   -1.32637554813599
H          -2.03501192669536   -1.94989496071237   -2.96175664151854
