    26
        -50.46195504  Gyration_radius:  2.47323463363 Dipole_moment: 4.188
 S          -0.67629849945595    0.67327365457219    0.08299079706629
O          -1.81697517677256    1.07072812601470   -0.88848321351257
O          -1.15575019378207    0.77843215055761    1.44515273750336
O          -0.31841557175476   -0.72166248578394   -0.24984495644061
O           0.44320923851086    1.54994159951044   -0.21587357877285
O           2.08320877927404   -1.00742200747857   -0.90613198971261
H           1.09227207191220   -1.04602161586576   -0.63221719164869
H           2.04183862464261   -0.30901817227893   -1.71687914763095
O          -2.41498029068670   -2.28993556045889    0.24211464201245
H          -1.58204915148206   -1.78847179801868    0.12531563219178
H          -2.48215691039720   -2.88076625507754   -0.50951635064347
O           0.90034427030513   -0.26295954355553    2.75203676293703
H           0.09791557786824    0.07388092968943    2.30038109302823
H           0.81840704605062   -0.00080765324290    3.67080434185785
O           2.64109289348544    0.58835109453124    0.93514323178312
H           2.48690805800018   -0.43998873055455   -0.11442583000080
H           1.95737281491328    1.19312738763162    0.57937500907444
H           2.21276101925468    0.20521837513894    1.73190991705087
O          -3.62271645601062    0.07872102239039    0.62658650099322
H          -3.04103981999878    0.36904280437721    1.34512593595740
H          -2.64608489469000    0.73621717971857   -0.42997415367754
H          -3.43671964281888   -0.87758214328605    0.52725227228402
N           1.70298608526492    0.84953529744643   -2.58062595434407
H           1.11011296655785    0.66454310668078   -3.37897943978373
H           2.45895033358207    1.45571529562695   -2.87161546294150
H           1.14580680822624    1.33790792171054   -1.86962162462857
