    26
        -50.46041495  Gyration_radius:  2.42316073901 Dipole_moment: 7.840
 S          -0.33918606197152    0.65405038780899   -1.11321866943298
O          -1.10196493086349    0.23417501609690    0.06644925708611
O          -1.08782116656953    0.42430757605617   -2.34456599654058
O          -0.04861679337163    2.14630344790632   -1.01616749585005
O           0.93499892403878   -0.08743925049446   -1.14994663265197
O          -1.01773550210431    1.46314973001132    2.57838598965572
H          -1.43583924623221    1.19407712122507    1.74836593483560
O           2.57928457112635    0.48088621641368    0.80248141192211
H           2.00671023522143    0.24321382328681    0.03271425327707
H           3.45970192613623    0.62518887131655    0.45326839627139
O          -1.97013367060389   -2.22175748262087   -0.35988858441188
H          -1.69746137580858   -1.30965804816873   -0.10128805668794
H          -2.92809834890679   -2.22953735778796   -0.33127296385915
O           0.95271902653432    2.61409194475096    1.23424556497033
H           1.64241196582164    1.92372105339446    1.27830768232155
H           0.36609384993079    2.39987467060846   -0.09119171698005
H           0.23408443554147    2.33202826648908    1.85642750662635
O           0.44490019460288   -0.82197251466686    2.13887920808316
H           1.35279202133430   -0.56598503646506    1.94141184471127
H          -0.55015382312530    0.66249270495423    2.87330511503706
H          -0.06443904725609   -0.61312252394471    1.34052812712457
N          -0.33701018522232   -1.96909594475808   -2.40397306584021
H          -0.98557775621020   -2.37200603787341   -1.68133488236419
H           0.51023061472524   -1.61254288987398   -1.91504332106390
H          -0.14108479543375   -2.58825947392811   -3.18279289402759
H          -0.77880507132786   -1.00618425977445   -2.65408601221213
