    26
        -50.46243690  Gyration_radius:  2.53544545928 Dipole_moment: 5.578
 S           0.28679531808830   -0.84775353415612    0.67722775860465
O           1.57711123350604   -0.24957567884890    0.40791381048712
O           0.17191035678379   -0.96210156521608    2.22267336441962
O          -0.80860854521729    0.04589935790041    0.23780031514913
O           0.13564591612410   -2.16060488774546    0.07789166561543
O          -0.49634543860867    2.59023873116702    0.79260540488469
H          -0.70957079968189    2.68725330546344    1.72210548986566
H          -0.68614139017883    1.64661308141771    0.57274959806262
O          -2.49323898126434   -2.17590534182251    0.05375777982333
H          -1.53423636842869   -2.34751816671558   -0.07127885208891
H          -2.57696121723939   -1.22631965005108   -0.08225793447258
O           0.10849297130569   -0.45310233127582   -2.14116117438671
H           0.46561518948385   -1.31026697053333   -1.88006931093373
H          -0.39345462979646   -0.17791910791833   -1.33994868810935
O           2.02410773964099    2.25995476100529    0.07974864101925
H           2.00775544751964    1.30896372723199    0.36522603174209
H           1.88043892591247    1.98308942610856   -1.29753619934451
H           1.14287357919182    2.59544150027202    0.37394321770344
O          -2.00051198339794   -2.33592261210106    2.63785683172943
H          -1.73117704745684   -3.24274977653985    2.79901245489830
H          -0.66874259125655   -1.45239086693534    2.44294083079399
H          -2.36340097989006   -2.31878017483644    1.71514989988393
N           1.71545284810120    1.63433910461005   -2.36553885955963
H           1.22587059826299    2.34253235683856   -2.90306154925941
H           1.11394408377399    0.75505561442206   -2.30078360426143
H           2.60637577472692    1.41152971824617   -2.79696695227329
