    26
        -50.45856232  Gyration_radius:  2.57502279254 Dipole_moment: 5.498
 S          -0.31963074298534    1.02247843562137   -0.21399523643822
O          -1.35711805267705    0.16376028062851    0.41197901251673
O           0.40428150438027    0.08701534326900   -1.23333625335133
O          -0.92700367560190    2.06548455944460   -1.00632343043137
O           0.64763825235802    1.48945807514966    0.75777065603901
O           1.15913530233133   -2.11064493682514    2.26023301164971
H           1.85782925045018   -2.19681870733742    2.91102084389214
O           3.26239855000039    0.96631764115625    0.82062313391484
H           2.33102314329366    1.26101011206408    0.88519715279968
H           3.70158553352255    1.59841135989682    0.24991232954359
O          -2.66427788852569    1.35361640543461   -2.77539006560088
H          -3.44794489076776    1.86744995730729   -2.57176714537240
H          -1.94768450332266    1.72179707749043   -2.18754524583054
O          -0.22151483043363    0.08039712260094    2.85767218216234
H           0.26525322999877    0.73743176037800    2.32972084016999
H          -1.01197807735271   -0.06759732989903    2.32211244834667
H           0.61746139059068   -1.33443409188299    2.54823854295837
O           2.14389275386880   -1.30413922252744   -0.07798013739391
H           2.75034719262300   -0.60230513722378    0.23844471689702
H           1.75580022493605   -1.69733970860167    0.74079412720896
H           1.11958985076194   -0.49462591656860   -0.75806064222631
N          -2.04882922661443   -0.96402502211621   -1.72215838202529
H          -1.83575616068488   -0.54416047350320   -0.70951446006086
H          -2.65759991137962   -1.77562641413727   -1.71004068171076
H          -2.44970771847515   -0.14309250659633   -2.26375559382490
H          -1.12719048030362   -1.17981869317556   -2.10385172380505
