    26
        -50.45303534  Gyration_radius:  2.42770050171 Dipole_moment: 8.047
 S          -1.42273891008363   -1.43979191684894   -0.68352170298719
O          -2.47191642542186   -2.30439854830337   -1.08881683236670
O          -0.96162340331699   -0.60756285636514   -1.94737724807393
O          -1.87594232979278   -0.38081002771044    0.27585698249256
O          -0.22752992692490   -2.08322522601909   -0.15126420235627
O           0.57099510910154    2.30987079240261    0.66919851790399
H           0.95530910605685    3.03770625511531    1.15821850057605
O           1.16840525719726   -1.64125877669771    2.12626133405715
H           0.55111439064316   -1.96321401476587    1.44305812414064
H           2.02368825412736   -1.60616794980657    1.68825642414665
O           2.32927392197239   -1.72419261726739   -0.63949655592066
H           2.65356946809638   -2.34768253228597   -1.29034759592873
H           1.38363431905119   -1.95799612081937   -0.48419167840346
O           1.26486935937527    0.60940297447957   -1.40673298552110
H           1.20531031066880    1.19939290938331   -0.63878142746477
H           1.84352785840245   -0.13512251425364   -1.14135622598627
H          -0.07429437283413   -0.19894530698080   -1.74726127663799
O          -0.34294036668375    0.55573876245184    2.28354223773019
H          -1.03489582397955    0.15784632222339    1.72130765147289
H           0.29005681071509   -0.18015526054504    2.43166412774457
H           0.26206624656105    1.63145499907390    1.36241551027520
N          -1.62974851279153    1.85668970615773   -0.80827748909953
H          -1.40376654158439    1.65971617466184   -1.78101631289324
H          -1.82572193549073    0.84048297489778   -0.31245148397231
H          -0.79619031255185    2.24380125378154   -0.31046957533223
H          -2.43451153085723    2.46842053414852   -0.72841681780347
