    26
        -50.45856218  Gyration_radius:  2.57476242887 Dipole_moment: 5.498
 S          -0.54763268582983    0.45666329935831   -0.83034273504259
O          -1.28900828341365   -0.77931332139166   -0.97483887914203
O          -1.05528125515083    1.55739163772953   -1.61460645660288
O          -0.63588673141396    0.92410823322816    0.65697606497510
O           0.90357839493252    0.25867588530057   -1.07596881936992
O           1.23881897042618   -2.77251063616437    1.29292214831910
H           0.99064177716017   -3.67240311843397    1.51123361316580
O          -2.67768966787041   -2.06449822862170    0.90509074063391
H          -2.23718180769909   -1.67055518364430    0.12454287209490
H          -3.55368574980387   -1.67764673440138    0.93859330847391
O           0.18317348997769    3.81321055869620   -1.43296775494475
H          -0.41393510926874    3.01768165814461   -1.50477021053825
H           0.40530285258978    4.04581231678385   -2.33644581871572
O           0.79081135865371   -2.42728699510050   -1.30380790507045
H           1.13361552088066   -2.69467437735835    0.31220852991401
H          -0.12342227602410   -2.09411792711415   -1.27744441917048
H           1.29871294720819   -1.61963676044007   -1.45605961675500
O          -0.56509250747890   -1.04386748856450    2.21203013518171
H          -0.60023362845945    0.11342861543373    1.30313327035488
H          -1.38460192244938   -1.51037183129277    1.94499990545393
H           0.17218733216813   -1.64385158456452    1.94361223015771
N           1.63506878831319    2.32066694543673    0.15589712656389
H           1.20363282399227    3.08032389541814   -0.44788987558147
H           2.61374453093758    2.48178602230195    0.36958114649649
H           1.06821894799641    2.22161729645730    0.99885405390761
H           1.44614389967397    1.37936783281116   -0.41453263475030
