    26
        -50.46954174  Gyration_radius:  2.3988272189 Dipole_moment: 4.986
 S           1.19605234080362    1.03432004776583    0.18169062726040
O           0.01899014224575    1.37859307609948   -0.64341403809101
O           1.25662987742447   -0.41491065124359    0.38531548706900
O           2.40790005664670    1.56323118772029   -0.38067450473203
O           0.92793352348815    1.68726044517724    1.57345520093945
O          -2.33035909322167   -0.76831369402447    1.38292275112365
H          -3.20064386596596   -0.95016708834855    1.73984198185886
O           2.66068569578623   -0.42252616720538   -2.09774011711829
H           2.69123858192774    0.39882487132339   -1.55409425821322
H           2.86850607005662   -1.12500525454277   -1.47567225313818
O          -0.66612322438027   -2.01797788370743   -0.49314588578624
H           0.11184853085196   -1.57493025188532   -0.09267852735931
H          -1.41100356261306   -1.72295818481717    0.05365469807116
O          -2.01047402198449    1.81430316130014    0.95337895566543
H          -1.61860578869187    2.29398958688859    1.68698707420859
H          -1.29474442649624    1.74356442299850    0.28154994702828
H          -2.30344051640761    0.20255332997259    1.18525117548622
O           0.05190938424020   -0.45737042195683    2.74384122336071
H           0.64374504354329   -0.85021746538708    2.08253528532682
H           0.57806500481477    0.95882997905608    2.15786302360664
H          -0.84784983958917   -0.65144939021459    2.42214558980467
N           0.03541972844397   -0.43602859298687   -2.46546654818624
H          -0.08685569726014    0.42633530638915   -1.85119655657605
H          -0.37293672381135   -1.22115065851740   -1.88457001411921
H          -0.39180533598225   -0.33986833975009   -3.37943799806152
H           1.08591808613565   -0.54893137009767   -2.51234233942381
