    26
        -50.46954171  Gyration_radius:  2.39882181254 Dipole_moment: 4.987
 S          -0.55504474313017    0.40644897494207    1.43525166897105
O           0.57567250205627   -0.53615273506968    1.30197916067574
O          -1.81811197157784   -0.49032045895915    1.62411822955278
O          -0.39283009496809    1.26779596240445    2.57382309856040
O          -0.73344651215449    1.15213582226443    0.18724546597997
O          -0.60462631552586   -1.85861257163994   -2.02809312902758
H          -0.68058494789710   -2.56760893253459   -2.66795856732989
O           0.71678777087842    0.61153415398315   -1.96753039644225
H           0.41091507164823   -0.28632041097506   -2.17046815602724
H           0.09188467747747    0.92496216493095   -1.27967510365546
O           1.21608042762486    2.91762575410748    1.29122647274285
H           0.57684960033077    3.29705368220897    0.68206876124293
H           0.66921384460423    2.38704359462552    1.91613273603961
O          -2.62223132499394   -0.39375911965296   -0.84177989096912
H          -2.25380971781665   -0.54627088258866    0.72881798340047
H          -2.15903548517139    0.45662420231577   -0.77691882804086
H          -2.04177651221848   -0.95461673390494   -1.38881626170743
O          -0.35177888575870   -2.81917191762738    0.41535340429662
H           0.07707235507396   -2.03012484866335    0.81799239648945
H          -1.18012576002466   -2.92314302928183    0.88957115387091
H          -0.44716992543385   -2.28758598230195   -1.14859520247658
N           2.35175813891249    0.85695891031809    0.07000546305764
H           1.93797305574102    0.78312127367244   -0.90155543518182
H           2.08521033202730    1.78986109163032    0.49087908115241
H           1.78204427341529    0.16243776113413    0.64359706114699
H           3.34911015688347    0.68008427466600    0.10332883368949
