    26
        -50.46699855  Gyration_radius:  2.43485297258 Dipole_moment: 4.892
 S          -1.55778446349423   -0.16795019443366   -0.11638072991277
O          -2.54918362524110   -0.80637001741748   -0.93761847541263
O          -1.06471700531998    1.09560970570109   -0.70274434066221
O          -2.19698624385514    0.20587076914383    1.26053702254303
O          -0.42600208788988   -1.04727094900745    0.17280647112386
O           1.88794236497200    0.78414097384849    2.05322289100899
H           2.53101165190591    0.94885733562845    2.74429419852146
O           2.16279073085918   -0.67918217333378   -0.31667348235739
H           2.30472985389214   -0.05247780728088    0.41168924669025
H           1.30903584782255   -1.09856608730734   -0.09170531277949
O          -1.06061168236840   -1.55390735148774   -2.98302338905129
H          -1.67042279010528   -1.65901612952485   -3.71579498666489
H          -1.62292118328920   -1.37932241147677   -2.19267763373234
O          -0.49548646403362    2.13975654565966    1.65833594679062
H          -0.59126799624193    2.12877091469461    0.69113396863954
H          -1.64507803166310    0.96440299527359    1.58729280341720
H           0.39823617337372    1.79520261277652    1.83620193243915
O           0.11005907304479   -1.05337691172685    2.73876285874038
H          -0.70089644459277   -0.76261157936051    3.16185170559766
H          -0.12848668366581   -1.20703458919947    1.79626665313682
H           1.30557367459975    0.05298184323750    2.38285729133144
N           0.76768168020131    0.28403781347618   -2.32095026609853
H           0.24539262679003   -0.51335887870998   -2.74793450392018
H           1.49766993730324   -0.08480673423428   -1.63917821602886
H           1.15792702531939    0.90341315602197   -3.02236325449531
H           0.03179408169119    0.76220713910421   -1.70820839889436
