    26
        -50.45856216  Gyration_radius:  2.57474769962 Dipole_moment: 5.493
 S          -0.37750969341205    1.01296845264149   -0.17375561288130
O          -1.33713253855256    0.09621392456249    0.49300424484410
O          -0.29659694074509    0.76094760374459   -1.59780437919717
O          -0.65048079330263    2.38598183345838    0.17912267458354
O           1.00307210577761    0.67835676892464    0.47443903094048
O           0.11851204670089   -3.11960205254181   -1.07289974290842
H           0.31088553434207   -3.63073309142585   -1.86082914484449
O          -0.80422098327995    2.95670556824035    2.69013292532748
H          -1.65617634158887    3.38463276044249    2.79382992503554
H          -0.67659515577326    2.85889460927569    1.70589220393168
O           1.83234209591364   -0.05760711104193   -2.98057739495339
H           0.99769874563017    0.27836788480383   -2.59459393748747
H           2.34896143785725    0.71613904877216   -3.20980713395952
O           2.03568262775431   -1.32826141996673   -0.62299800915171
H           1.35782834582010   -2.04263245147572   -0.69942980463090
H           2.15394640753231   -0.98995313862278   -1.53513870262540
H           1.42989633057367   -0.15469593995290    0.02781717436230
O          -1.83649195304867   -1.42407147763219   -1.67834865159381
H          -0.65900661715934   -2.55264710399450   -1.30299936215348
H          -2.10879462702141   -1.15867060266386   -0.79008154158344
H          -1.31397519906724   -0.65706812075591   -1.97157335610707
N          -0.37184814441874    0.37559608748588    2.79407826061955
H          -0.89153693969205    0.16187064758138    1.82895415308357
H           0.61956658358898    0.27520863951473    2.57362444315642
H          -0.57051653943041    1.40349429995592    2.97313851910513
H          -0.65750980497342   -0.22943561934449    3.55680323907469
