    26
        -50.45974662  Gyration_radius:  2.50438288092 Dipole_moment: 6.037
 S          -0.74904037348399    0.42035091951236    0.51630997306751
O          -0.07424681630568    0.12476721982920    1.85393091251258
O          -2.16988137563605    0.12416662821137    0.67497055528924
O          -0.54734748741032    1.82630955110231    0.14735245785765
O          -0.14961333870347   -0.44862074655289   -0.50921822155595
O           2.86818477251226   -2.15703787777154    1.24198048507100
H           3.19713794208542   -2.70177410956428    1.95840015320753
O           1.93440369368339    1.40231001843397   -0.76460504499066
H           1.08544856605053    1.78429539214134   -0.47432443430548
H           1.69043259171446    0.56638312877765   -1.17649428670696
O          -1.51568937373096   -0.07255490776852   -2.72153579283607
H          -0.92110281243473   -0.24427510880358   -1.95029898011908
H          -1.84647048212453   -0.93196896757228   -2.98915227932508
O           0.22549122458945   -2.60245028151759    1.00703414093276
H           1.93394071819991   -2.42782213631674    1.09181266171347
H          -0.16604063111029   -2.24433143300204    1.80853604587367
H           0.06681247407771   -1.91718472130777    0.32846581694708
O           2.38863355681573    0.43357608738581    1.66919485021655
H           2.44722812552573    0.88222738820640    0.79286627613324
H           0.97758786661233    0.29632270582950    1.82713537998749
H           2.69759474154583   -0.49185055580193    1.52136892232417
N          -2.72636240901893    1.71351148949379   -1.20507140852279
H          -2.43544968000342    1.12845281046694   -2.02873095718815
H          -2.83988987125763    1.01650411335058   -0.39163144209075
H          -1.85998716802022    2.18984788860317   -0.84951019748541
H          -3.51177446417112    2.33084549467402   -1.37878558601866
