    26
        -50.46699853  Gyration_radius:  2.43483946107 Dipole_moment: 4.890
 S          -0.57815194774647   -1.45707138313839   -0.10897303797947
O          -1.13683394179680   -2.36245942471621   -1.07493632789680
O           0.89791613336052   -1.41263429140511   -0.16166432326479
O          -1.11315742495230   -0.10291338352432   -0.24238375735263
O          -0.95262365511708   -1.94641957588375    1.32790697151239
O           0.50464098964662    1.91503394781057    2.11466342294834
H           0.58961190552323    2.59339014607518    2.78609035047518
O           0.17771893407809    2.18714896258398   -0.65122559104870
H          -0.53346739953252    1.52074929844381   -0.57756985389812
H           0.50219191877551    2.27203692792279    0.26033438869068
O          -0.58529643350405   -1.07164758303063   -3.30829249647189
H          -0.59474457542074   -1.73913997229025   -3.99689289055511
H          -0.89443131373854   -1.52832501973167   -2.49148471689488
O           1.11610216015011   -0.77270250681454    2.39417307932856
H           1.43445846310364   -1.01377108840874    1.50795172496921
H           1.01965659591968    0.19660307332106    2.38222956642494
H          -0.23948778632961   -1.56921753750905    1.90732862594778
O          -1.90253881055184    0.81414163746864    2.08295534924477
H          -0.43615079134103    1.60502370938260    2.14904796921160
H          -1.76206727123734    0.47869687952054    1.16833770049594
H          -2.04982798233447    0.03258388808685    2.62019075755698
N           1.34001804761668    0.28958266186474   -2.04369055602844
H           0.63892939861315   -0.06509376407956   -2.73175606584770
H           2.26173477742346    0.38737654005228   -2.45444279632230
H           0.98604296551964    1.18897726666463   -1.59685073450849
H           1.30975702385177   -0.43994940887286   -1.26104675862325
