    26
        -50.45261704  Gyration_radius:  2.43246470733 Dipole_moment: 5.785
 S           0.73254072693436   -0.11621137320139   -0.98182494063560
O           0.09848407436808   -1.24572211138305   -1.81436325645920
O           1.35479416548363    0.86521523081885   -1.84361814582069
O          -0.39709238872319    0.52104406823717   -0.23372082819445
O           1.64975290855725   -0.72608220550246   -0.04558076547292
O           1.65434464681609   -0.49779070055644    2.64718644127262
H           2.20349284967763   -0.70237504374193    1.87336604177635
O           2.52304465988190    2.31904035208436   -0.04348532535606
H           2.54955457730595    3.21007628643384   -0.39878952087873
H           2.18961343823223    1.73899403249299   -0.77908193661240
O          -2.55180692215219   -0.81464287713081    0.47443612082688
H          -2.95266633622079   -0.35477240995306    1.21410029056816
H          -1.77899365275020   -0.27316545301360    0.19820433114915
O           0.76448579998801    1.61937347953763    1.65770239052174
H           0.17504083169957    1.18741202360031    0.89764666684776
H           1.14878984423525    0.77141197705269    2.18703422764922
H           1.54391851134643    1.99591619700884    1.11180501679823
O          -0.18107357985446   -2.04808985093359    1.48028323889393
H          -1.08349765910452   -1.88396995955437    1.17200609017616
H           0.40627993786613   -1.80781100572792    0.74521886839427
H           0.90061774230951   -1.12116718886065    2.54599534882056
N          -2.28741055218923   -0.49853934024342   -2.46645819464999
H          -2.73072807579813   -0.94224188083607   -3.25909013819743
H          -0.82280570955681   -0.94694784845037   -2.14367633693707
H          -2.32649311264880    0.50541688964263   -2.57793071456461
H          -2.78218671564157   -0.75437127782101   -1.61736496994136
