    26
        -50.46195502  Gyration_radius:  2.4732635812 Dipole_moment: 4.189
 S          -0.32008562732069    0.46577897325431   -0.77341155967793
O           0.13981451468049   -0.79924146945058   -0.16273423565759
O          -0.95832098331665    1.29265089995030    0.23660100720401
O           0.75806177016410    1.12793069434582   -1.47737758903604
O          -1.42645577913105    0.07917679866277   -1.78795776031247
O           1.23893943340895   -2.31951329304584   -2.05420428626604
H           0.89820069484143   -3.20366884530893   -1.91031132960652
H           0.93232125423367   -1.77907930418067   -1.29736228289970
O          -0.12102918361408   -0.85853872594235    2.32898991247378
H           0.07024440641797   -0.96445036272051    1.32366581824311
H          -1.17689039284946   -0.68018837184294    2.31622856609191
O           2.54173088610797    1.33166691140271    0.47117493605818
H           3.18449690823028    1.99101418644609    0.20344291861042
H           1.93150001834198    1.22237223157921   -0.28844543986775
O           0.66000190209827    1.51588017682243    2.33690342488805
H           0.00044730170531    1.70508623810681    1.63762645252295
H           0.28655760818231    0.09693966404674    2.50986420268281
H           1.51129045899323    1.49737762303330    1.84692097074627
O           0.26645676727845   -0.38728979442910   -3.64713175937274
H          -0.91412468786303   -0.15048621887311   -2.62122750410368
H           0.76614367933662    0.33586262102129   -3.23933989361324
H           0.68796413253868   -1.20324527576066   -3.30719897546130
N          -2.53475450761251   -0.20302675602728    1.95342456908054
H          -2.21566513874135    0.44312734796035    1.22188060437827
H          -3.04903510626410    0.32322193171644    2.64782269416851
H          -3.15781034985186   -0.87935789076794    1.53215655872587
