    26
        -50.45725954  Gyration_radius:  2.58816128603 Dipole_moment: 6.915
 S          -0.42050941455175    0.48152170779721   -0.80178506119178
O          -0.47752317726382   -0.77991125300077   -1.50085081248471
O          -1.25851273166566    0.38087015466633    0.51476959160287
O           0.96040004901721    0.78553541593111   -0.32852543018740
O          -0.95979246737720    1.60825729592606   -1.52483136175275
O           1.64686441191239   -2.67633114969137    1.02034522180435
H           2.41549409282537   -2.55607669728224    1.57852141076271
O          -0.85597512522675    4.05174521888983   -0.68748125531366
H          -0.35117916755123    4.53522562951557   -1.34397514955783
H          -1.03712389380399    3.16235175438869   -1.09381355462181
O          -1.74538118916899   -3.00163036906734   -0.71111333174345
H          -1.17440694965078   -3.71135956669526   -1.01225131808239
H          -1.39670782930648   -2.18330988189740   -1.11801931558135
O          -0.86155942897403   -1.87452994895354    1.54915320843729
H          -1.34951075442636   -2.42130311745916    0.89552562247725
H           0.07585710759482   -2.15096884080678    1.44570785715188
H          -1.10215135386368   -0.54359213480016    0.95443802742577
O           2.14206077775569   -1.41164593268475   -1.26773630646920
H           1.33280510701820   -1.58202864255816   -1.76710875715704
H           1.97717913166162   -0.52132387900035   -0.90932436730226
H           1.87872936697377   -2.28608371347632    0.14261625537476
N           0.12698796594230    2.56969992969892    1.23570756885020
H           0.67355846132966    2.90184427975056    2.02342333268416
H          -0.69521974154439    2.03244334086095    1.52864502441506
H          -0.20078563149297    3.34648376551800    0.59093166881331
H           0.65640239385049    1.84411664443694    0.58703124163762
