    26
        -50.46112310  Gyration_radius:  2.68961301849 Dipole_moment: 4.728
 S           0.68580703502472   -0.21860438335730    0.39425182801832
O           0.70733373890564   -0.43115897227442    1.82903860738563
O           1.93790219347120    0.20444580516194   -0.16988240125650
O           0.30495419914338   -1.62460612545563   -0.21718864759530
O          -0.42359364116765    0.68229465254121    0.01437119452705
O           1.29697401371492    0.36751554249305   -4.05907102404362
H           0.93108221861686    0.97613671625440   -4.70283818290248
O          -0.62090817616948    0.96567805452492    3.61593535139007
H          -0.24412513475104    1.84548267744905    3.66333765570668
H           0.00056102063813    0.43624921166025    3.06244389222545
O          -1.22927629860721   -2.43459623842258    1.86263997714806
H          -0.70216952872249   -2.35995873160756    1.04570539863004
H          -0.58631320163104   -2.29275784815499    2.56550281345787
O           2.45356740104467    1.83639081365336   -2.15811852506796
H           1.77762040634202    0.92065157284912   -3.39904019209829
H           2.20812226053802    1.28258535775562   -1.38176480972666
H           3.41257553625791    1.84154483992524   -2.16646221390334
O          -0.54813383133131   -0.56749643394821   -2.36230521997503
H           0.01337483218368   -1.39126612295952   -1.15156860313442
H          -0.63814512747025    0.20962907015400   -1.79002687506752
H           0.13457196926622   -0.33946471526660   -3.03619070364516
N          -2.22105738835744    0.02388807292293    1.71102072666551
H          -3.19601128017270    0.22076585711515    1.51505786991294
H          -1.55649864653704    0.36466815873931    0.92770027745607
H          -1.87458215356579    0.49229528607670    2.57871140992741
H          -2.02363241664162   -1.01031214782525    1.80874038593780
