    26
        -50.46112285  Gyration_radius:  2.68897016904 Dipole_moment: 4.740
 S          -0.34285460292813    0.74811914979719   -0.01438579109017
O           0.37030326554967    1.92188495442823    0.45227054988827
O          -1.06886131149610    0.17947531331872    1.26823795656535
O          -1.33082137176102    1.00738550148362   -1.02527148457719
O           0.60330479163784   -0.31111717833428   -0.42583547241145
O          -3.05364808003099   -2.48522162399062   -1.67454130749446
H          -2.89975247248923   -3.28043495588069   -2.18717084468002
O           0.80982040953040    0.99123120971440    3.04253088959660
H           0.83796747209354    1.92067107716144    2.79181402333986
H           0.01418557932345    0.65185709481980    2.59234436576804
O           2.93332219624208    2.40444018329540    0.12706316721655
H           1.95209106071338    2.39028837038743    0.22610972290329
H           3.10023000287888    2.58166258398949   -0.79980780473743
O          -1.23871218020926   -2.14493992942388    0.26089809570155
H          -1.98998131466382   -2.29544194669222   -0.35986651672824
H          -0.49877935354960   -1.82483295514553   -0.27720402254190
H          -1.29965025940795   -0.76171337930795    0.99697793254241
O          -2.07519388304456   -0.44237886555999   -3.08059305934884
H          -1.71682660790471    0.08808510525472   -2.33217785005098
H          -2.74879536021330   -1.73297550470379   -2.23482020319996
H          -2.72769183746529    0.12428663021778   -3.49644273544013
N           2.51016825505203    0.02770424708074    1.24490398661253
H           1.96494893522236    0.32841392591621    2.09950938468192
H           3.15335191617342   -0.73203282771179    1.43686373377431
H           1.75965454680529   -0.23106512319793    0.50916718399816
H           2.98222022394822    0.87664895309489    0.85942609971907
