    26
        -50.45997517  Gyration_radius:  2.56974208226 Dipole_moment: 7.049
 S           0.35066728477571    0.53343520974511   -0.82433675764288
O          -0.38187914670497    1.06639164257397   -1.98040874142836
O           1.37823471290270   -0.41691086992742   -1.24667622067539
O           0.86697045290514    1.56200960477139    0.04774022287222
O          -0.73352074433356   -0.28845695169580   -0.06058136984757
O          -0.59718651087332    0.91102205159784    3.61997237040236
H          -1.47486702705147    0.71059466136596    3.94840633055464
O           2.66808004834402   -0.24460867490930    1.10150891053460
H           2.49056185966039    0.70107091628904    1.15755761270816
H           2.41748455174136   -0.46895480152615    0.18801208805064
O           0.52756345889489   -2.32374940020026   -2.77966789783782
H           0.92938277331203   -1.67366109198443   -2.14237820056286
H           1.09401836301973   -2.30653418646125   -3.55321451510318
O          -0.90680199904725    2.68127364121563    1.62824301404132
H          -0.55999876566380    3.56218108298359    1.78185644337600
H          -0.29324369576939    2.26632786307996    0.98051098344985
H          -0.71706636409474    1.59638320699747    2.92376445368706
O           0.32188243770206   -1.06924258056543    2.06812228232072
H          -0.32386870020608   -0.64515019748891    0.83278580557260
H           1.27194152687354   -0.89252514229094    1.87569115197932
H           0.04816149196307   -0.39414538892386    2.73200154507309
N          -1.71900047618266   -0.99532285279627   -2.48560447521225
H          -0.93706915329511   -1.66344208103435   -2.73888334260256
H          -2.05308804975324   -1.22109240470241   -1.54911782157747
H          -1.19752055320482   -0.00985524713734   -2.35793744921481
H          -2.46983777592534   -0.97703798892618   -3.16736642287152
