    26
        -50.45997514  Gyration_radius:  2.56963851211 Dipole_moment: 7.049
 S           0.15221564731546    0.28128649060099   -0.99233299268670
O           0.66477869627663   -0.99815166426840   -1.47986549976356
O          -0.75251770400431   -0.03774461443098    0.23808219569762
O           1.20285702395489    1.18476183324710   -0.58612490804000
O          -0.78442194296230    0.87546072855526   -1.95502633208268
O           1.03097726926654    1.50278100548194    3.31178109757366
H           0.31487433138021    1.64326120842965    3.93292993964698
O           2.72050138205771   -0.96509198870844    0.24640062174526
H           2.10350846513713   -1.20737243625301   -0.46652653459999
H           2.83173188111037   -0.01430882610286    0.13407837938919
O          -1.15768613588687   -2.69718631236472   -2.18866878528563
H          -0.93063042415408   -2.96305491153634   -3.08160142918511
H          -0.39463768961185   -2.14028995233469   -1.87588333152529
O           0.49053223037863    3.01183614774338    1.16066582102871
H           0.84914566895427    2.09641843342685    2.54803255484585
H           1.08775878218878    3.74287769783811    0.99102360110333
H           0.69275160557568    2.34118357282777    0.46963467959969
O           0.76280949774202   -0.84758833941311    2.05541815158965
H           0.93903798522168   -0.04238087412039    2.59578068752844
H          -0.15394568134778   -0.39394540494294    1.01784484644945
H           1.58700289890983   -1.01739732567003    1.54278884508736
N          -2.70565241915177   -0.68060293887439   -1.52888602798138
H          -2.71996308531926   -0.66532237036533   -0.50950154427166
H          -1.93397905951631    0.08734803283060   -1.80105480321879
H          -2.27644891384870   -1.59412800793919   -1.85009116788887
H          -3.62060032959418   -0.50264916367967   -1.92889804470386
