    26
        -50.46492026  Gyration_radius:  2.39771160343 Dipole_moment: 3.484
 S           0.83046942478631   -0.85532955210346   -0.84533664619007
O           1.56320761396541   -1.85207840914975    0.09905084794261
O           0.90441974830836   -1.34888002348415   -2.21128712636972
O          -0.57624427530199   -0.82195776017451   -0.42177274067840
O           1.45653319053701    0.45061796592228   -0.68861237499660
O          -0.13702908150098    0.51918297589387    2.91730989101414
H          -0.30739299161247    0.60159433375504    3.85670980924842
O          -0.26099423165219    2.17593038187433   -1.66338367513347
H          -0.82929143174674    2.18963083646057   -0.85713774002895
H           0.54928585812920    1.71452853850063   -1.34942239739097
O          -1.51855452999736    1.47712828100914    0.56634654540942
H          -1.28897922162989    0.58438995792623    0.24257630591214
H          -1.08998645907521    1.52985940838419    1.42975515052470
O          -0.72478530956309   -1.90576611417349    1.98507028127738
H           0.01503245138079   -2.51778478023978    1.99350894102714
H          -0.45433492974884   -0.37823269346400    2.65269878697468
H          -0.78730004273902   -1.59091499415500    1.05781860428766
O           2.28332248599862   -0.04310808897863    1.77784590291678
H           2.25267549241329    0.50141129842121    0.97387133594321
H           1.49774636411676    0.22535030357484    2.29478135644771
H           1.93307295641376   -1.28003211572025    0.83978278595375
N          -1.08723698335889    0.12221749931300   -2.96614942167341
H          -1.87039597173283   -0.26449318239699   -2.44310977119769
H          -1.30732574228605    0.22214137186424   -3.95238294342997
H          -0.79292282570057    1.08179256487783   -2.48880047687161
H          -0.25299154840215   -0.53719801373713   -2.79973125092258
