    26
        -50.46050463  Gyration_radius:  2.59234217401 Dipole_moment: 4.553
 S           0.21012169850147    1.11886836576555    0.56282270317681
O           1.40112058686562    1.27558638896533   -0.23245667503508
O           0.26351170569425   -0.07195463626754    1.41504938036087
O          -0.12795880480784    2.31033705419783    1.35273410894099
O          -1.02669139648439    0.94317638235294   -0.37304196928225
O           1.32577505421170   -0.86878178061848   -3.52502521492134
H           1.54067023229196   -1.74101068840610   -3.86043913732027
O          -1.83668484651897   -0.49489632160308    2.86978155872969
H          -1.52021639149264   -0.60609578816955    3.76783720769340
H          -1.02000249700606   -0.45182371365434    2.30291909486798
O           1.11725410702210   -2.14814626307675   -0.04599546397934
H           1.93094219269103   -1.81582462798838   -0.44829212360868
H           0.86691855298583   -1.48036427720471    0.62093609566100
O          -0.67329751321442   -1.14182335413899   -1.72706814623007
H          -0.11176112191332   -1.68482089950021   -1.12067884793672
H          -0.89487841558503    0.10150527302062   -0.96152779732698
H          -0.09238481768002   -0.94027719642730   -2.49172511588077
O           2.94952634502632   -0.46290955528984   -1.37973466679681
H           1.97801933069387   -0.67622530345002   -2.82145911938531
H           3.81617493024582   -0.05844025764549   -1.44029081589744
H           2.37261906969313    0.21070542875076   -0.93843254743532
N          -2.54373837156348    1.75431079626842    1.70904131204782
H          -3.17458182665590    2.43723879102952    2.11452665280960
H          -2.81007388303856    1.50138800922791    0.75787600636895
H          -1.48198910777452    2.11858656768005    1.60702322396222
H          -2.45839478219870    0.87169161618141    2.28562030641497
