    26
        -50.46050461  Gyration_radius:  2.59214977743 Dipole_moment: 4.562
 S          -0.35458681977812   -1.21463099074653   -0.10803560057454
O           1.00050766537948   -1.56122599947987   -0.45335871533951
O          -1.22915694605027   -2.38039538199815    0.07524573271891
O          -0.37903685664210   -0.52179162750010    1.29034224044070
O          -0.94449967178206   -0.26595818636965   -1.05632687587083
O           3.61786268218422    1.07577466442927    0.82584866054847
H           4.04696778262557    1.89460310151629    0.57121117287896
O           0.81074904896682    1.70370305286453   -1.52058312287896
H           1.61719851109898    1.22877625474685   -1.76243401271350
H           0.10675218159359    1.02729082224968   -1.50615455811222
O          -3.36758254719245    0.47499864584623   -0.52355715314448
H          -2.41955802894105    0.30064413650132   -0.77089249827032
H          -3.87330969487427    0.32688695700973   -1.32442142322569
O           2.92653383638332   -0.16712746503444   -1.49378730633960
H           3.46309923446047    0.57739730449070   -0.00192307609270
H           3.49454184628499   -0.78710972133468   -1.95351316719524
H           2.19703959968817   -0.71342840163929   -1.10550639240232
O           0.98059731833617    1.58309887833261    1.12577955437784
H           0.19570756624497    0.33860485297917    1.25662187138925
H           1.93228902993422    1.36507105622888    1.22364657325000
H           0.87366380805581    1.82030970394944    0.17182512664053
N          -2.98186752260946   -1.22583076879550    1.44205015793413
H          -2.25868379038151   -1.85543719954316    0.84987273712332
H          -2.39125602667593   -0.73920371868509    2.11583400389700
H          -3.34726984142358   -0.52473365288292    0.73941676324385
H          -3.71670235488783   -1.76028631713021    1.89279931770431
