    26
        -50.46507298  Gyration_radius:  2.55461609392 Dipole_moment: 4.277
 S          -0.90937808421730    0.31791715471409   -0.24718158053942
O          -0.81292933216737    1.36218910845787   -1.38835787455492
O           0.22485369369156   -0.60219159915211   -0.40838017337562
O          -0.83064364702230    1.01565478714014    1.02849204986761
O          -2.16290337399509   -0.40903521466847   -0.41024852266019
O           2.58240747341917    2.73986130702282   -0.26024794402732
H           3.20002058118169    3.31781176010934   -0.71068092601552
O          -0.09277072604503   -1.01337075998847    2.49547060344063
H          -0.37206625437382   -0.16245386309049    2.07920940732913
H           0.77330630230377   -1.19406348223898    2.11999849815731
O           0.02228417509325   -3.22218883591961   -0.65560633769487
H           0.22090112789158   -2.25783160611625   -0.60746480342329
H          -0.11241619585980   -3.41478374391054   -1.58467000523604
O          -0.01944543875890    3.32979385278652   -0.00635207547943
H           0.96075504266583    3.24083528158998   -0.03313841732008
H          -0.53637127032195    2.23586611696213   -0.94231491598688
H          -0.30714629291197    2.79662183837256    0.75188003333314
O           1.93000748903159    0.74506533475257   -1.92775922734570
H           1.28858298740535    1.13872448468564   -2.52555977789005
H           2.45633446301944    1.95774552575547   -0.84515497039683
H           1.39851325394154    0.16439056307605   -1.34429017462524
N          -1.80912722325240   -2.45169467483750    1.10515740242332
H          -1.17219414118756   -2.00129941975938    1.82533011962211
H          -2.58481316982362   -2.95417878984719    1.52143799952354
H          -2.12351702023801   -1.63162196542811    0.48259922228599
H          -1.21224441948249   -3.04776313055892    0.48783236060618
