    26
        -50.45854334  Gyration_radius:  2.48314674515 Dipole_moment: 7.764
 S          -0.17688873095390    0.54553493093867   -1.44418727947575
O          -0.23608684435812    1.81000006426130   -2.09812795279195
O           0.95589205374949    0.39707703666018   -0.51939858203849
O          -1.42363891162413    0.17091549898897   -0.75802010399048
O           0.04145540660549   -0.56305642731205   -2.54820165178283
O          -0.89602168914074   -0.04355576209788    3.04031863071918
H          -1.47715565876264    0.05748806060461    3.79559607035134
O           2.97291680882953   -0.82040424181705   -1.93377795639704
H           2.42685013201774   -0.19747669413178   -1.42883766793407
H           3.01251318339018   -0.47576703204372   -2.82696713066178
O           0.61478345932426    3.00437589802251    0.20244712339799
H           0.26999363794705    3.03889945199466   -0.70148075679602
H           1.10326844415724    2.17082099602793    0.22498087172137
O           0.92906710688861   -2.19130465357668   -0.46222837671503
H           1.04100972639274   -1.22246603819275   -0.31310399984737
H           0.29785071768353   -1.36540721161298   -2.07026276909871
H           1.79883443283161   -2.48678423530484   -0.75126768195143
O          -1.50839311070512    1.85654702777708    1.37640208348838
H          -1.05476395775147    0.76269723508222    2.46537717320213
H          -0.77373357040003    2.46317959637001    1.14460471292059
H          -1.66544150683653    1.35141431705671    0.56091712735699
N          -1.26161423449117   -1.68488056747794    1.02490102899979
H          -0.42198480997101   -2.21129430112160    0.74489243606348
H          -1.09649331522910   -1.14348607865041    1.92804038432556
H          -1.39793634081344   -0.93475674639326    0.25890597456753
H          -2.07428242876832   -2.28831013406333    1.08847831238299
