    26
        -50.46623444  Gyration_radius:  2.38641269624 Dipole_moment: 3.315
 S          -1.39000748033732    0.11591924776420   -0.63246609217730
O          -0.91326869324292   -1.14464186884892    0.19652072391934
O          -2.04152407072844   -0.45459966531431   -1.80309927092477
O          -2.20787219112007    0.92805310700280    0.23124638071604
O          -0.15208680751575    0.79824069210106   -1.04369650568902
O           1.04053832155953    1.27241467107224    2.41274389597284
H           1.48401045007093    1.77771314688609    3.09527979073872
O           2.01996497569470   -0.18115335891311    0.16448885535533
H           1.91931425421848    0.11376624727103    1.07955310451223
H           1.28054208007029    0.24844596044796   -0.30893207076160
O           1.25291121304789   -2.53940515839850   -0.76613767073250
H           1.73929950948819   -1.77448803792053   -0.36992543815982
H           0.45675056320902   -2.60961139901156   -0.22423519765957
O          -0.22019949630240    2.81508988207215    0.67456763525198
H           0.64029259686269    1.93225139948703    1.78848570192602
H          -0.08388336738442    2.21573859063553   -0.08639848948113
H          -1.16879246676289    2.75346879528033    0.83156877306426
O          -1.27779321874226   -0.14899522369364    2.52346975954636
H          -1.02673389833951   -0.91372246283858    1.16655869889850
H          -0.43300844867824    0.32506646107785    2.65469446072301
H          -1.85770203035447    0.44751018495635    2.02281303834835
N           0.19987996412247   -1.21454883605356   -2.75905283568895
H           0.26466278037277   -1.58994528997408   -3.70014089821843
H           0.64239226607634   -0.29600462763968   -2.67712581624818
H          -0.82573244410034   -1.01718393276443   -2.45117227073402
H           0.65804565880436   -1.85937855468075   -2.01960826249825
