    26
        -50.45854330  Gyration_radius:  2.4830289136 Dipole_moment: 7.762
 S           0.68902856435666   -0.10397718053823   -1.38858461402872
O           2.08559144034853    0.63255231723818   -1.43661181934563
O           0.71373698336046   -0.89720968570984   -0.15137147543793
O          -0.31197282784850    0.96758126455117   -1.26497575047546
O           0.56079350408809   -0.87872395064754   -2.57741138789908
O          -2.63337370512567    0.34407096713247    1.73117454552086
H          -3.53256091647961    0.60467629503371    1.93582616562542
O           3.35871518464036   -1.32427584676956    0.45905936059425
H           3.86293421339029   -1.50250054864416   -0.33593126137419
H           2.42548172273405   -1.42632089560735    0.21446197957193
O          -1.13931640869654   -2.55984499361777   -1.26354678844950
H          -0.69998229512527   -2.24549844852743   -2.06687385973480
H          -0.51970542103049   -2.32231888637046   -0.56094155840385
O          -2.62298017975386   -0.37952302405826   -0.76499982182458
H          -2.66713790030170   -0.04822146625555    0.80888108611397
H          -1.90459121814272    0.17105231598635   -1.11930452546498
H          -2.32618119820666   -1.29876478995467   -0.93380903982867
O           1.80731535898592    0.92733663858108    1.32463528439337
H           2.61780122863226    0.54985793013404    1.68239983651561
H           2.24110931506321    0.96372261557459   -0.53987669803439
H           1.33255759048212    0.15449768443203    0.93636308789437
N          -0.67052901081860    1.96314779452009    1.08640044602434
H          -0.89103034030004    2.95295339255190    1.10215924380073
H          -1.46330036120505    1.37252625691773    1.48464014941688
H          -0.53200090190727    1.61551307777688    0.07241741564033
H           0.21959756886121    1.76769117626976    1.56581998918203
