    26
        -50.45606804  Gyration_radius:  2.60107155643 Dipole_moment: 7.232
 S           0.79569021472915   -0.47357583567134   -0.61275012152118
O          -0.28441478539986   -1.28723525189418   -0.05060827176505
O           1.39185176496694   -1.14890975871363   -1.77509074799432
O           0.10677270587143    0.78618692762106   -1.24273862821246
O           1.75042514918098   -0.04826374947109    0.37115317352813
O          -0.47571796696221    1.45692546163939    2.93052335558524
H           0.47029868080374    1.63957285904090    3.03002734183711
O           2.17189514889971    1.91351950286614    2.11550705445601
H           3.02427019854736    1.76494088576980    2.52622662078644
H           2.04592806483688    1.16903477901329    1.49126348588234
O          -2.03983068052985   -2.20148211341321   -1.71646137146400
H          -1.97528644899001   -3.15602425140004   -1.65121018145294
H          -1.44885546358093   -1.84491191371639   -0.99874164759873
O          -0.16764592488982    2.53655265440074    0.56010536070607
H           0.72989412409978    2.81788571682957    0.77300018738490
H          -0.02934968486235    1.48696139705363   -0.51035348229693
H          -0.48712852800903    2.13505132680295    1.41371301374108
O          -0.61227484775392   -1.22775525023331    2.58785412847788
H          -0.54506411737897    0.48192001291602    2.88708991765389
H          -1.49902114245840   -1.58367351846859    2.66800614749296
H          -0.38766574230970   -1.27133244199727    1.63586203513226
N          -0.52601027442015   -0.78696173385606   -3.33903363671383
H          -1.26376063863569   -1.39142122999557   -2.88346371578039
H          -0.42151087800978   -0.96312408225132   -4.33238638522448
H          -0.72988723789595    0.19236131565894   -3.14164214419693
H           0.40639828999754   -0.99624171859504   -2.73585149853644
