    26
        -50.45997519  Gyration_radius:  2.57005838636 Dipole_moment: 7.035
 S           0.14248160075194    0.20940504846412    1.01174090764085
O          -0.97313285086703    1.14069853652059    1.17199552216339
O          -0.21152851386639   -1.14834680246854    1.35251808981570
O           0.56306709787803    0.26745058002611   -0.48944759124159
O           1.33749741021008    0.69223676402991    1.71609795153422
O          -0.27545496902500   -3.21332973049688   -1.97307102076049
H           0.32137089004998   -3.28598533869075   -2.71927747742179
O          -2.77562237321116   -0.70343916900034    0.42769411239687
H          -2.34919454583053    0.11411262447429    0.74003521528566
H          -2.30005560082547   -1.39865394516119    0.89601358721678
O          -0.43970441046606    3.59433464512414    0.53640403986406
H          -0.69257276658693    4.11965547782703    1.29772063069064
H          -0.75570620507450    2.67176125697665    0.73443861890315
O          -1.30884046978961   -0.74817856666515   -1.80041833026371
H          -0.20379300836009   -0.13767908507513   -1.07372090276613
H          -1.03251929276611   -1.68600254155383   -1.92495884880668
H          -2.02105825525940   -0.76247499673519   -1.11955741097349
O           1.25559987000886   -3.00922179238135    0.22020109713074
H           0.29394829148826   -3.18783861636452   -1.17063276851181
H           0.76971366772865   -2.27373216635084    0.65736628381028
H           1.21960707810843   -3.74261334302350    0.83719231625596
N           1.92566820111132    2.53279832764587    0.11610297965231
H           2.80346517552862    3.03447181149756    0.19759403428240
H           1.84944851773239    2.02873688183044   -0.76686862503060
H           1.78267168749643    1.73847913928404    0.89611932983445
H           1.07464376383058    3.15335500026034    0.22871825930224
