    26
        -50.46294015  Gyration_radius:  2.65588691418 Dipole_moment: 5.940
 S          -0.64716944355784    0.08216066014479   -0.07623605318341
O          -0.72809961942993    1.31929737541496   -0.85305273611240
O           0.64654864770891   -0.58182825142379   -0.33914848652766
O          -0.56907836543002    0.57810404818212    1.39714483235466
O          -1.76487490188194   -0.80966001989805   -0.23966956520660
O           2.80364764602470    2.23466883019289   -2.35736393960443
H           2.69493928645776    3.03890920026212   -2.86732231916796
O          -0.04224374216030   -2.90778447951789    0.80629574086988
H           0.33654841752000   -2.14517860532930    0.33168819288319
H          -0.88757827986173   -3.07282824476667    0.37933967056841
O          -3.34290988389264   -1.57823279274996    1.77303584456675
H          -2.85725046082476   -1.34289814339216    0.95643976026463
H          -4.04505631441991   -0.93207732577548    1.86001971863022
O           0.82391426884047    0.57266882260403   -2.91815036233934
H           2.15162415549911    1.58414410956050   -2.72611664250477
H           1.03026532232514   -0.27997756177613   -2.52105220621018
H           0.11527799679248    0.93248739045162   -2.35030165753531
O          -0.88904864189389   -1.44284102695641    2.87759149362347
H          -1.84993312587207   -1.57658802157904    2.74926795094336
H          -0.46732133556929   -2.12286177611120    2.30500081478946
H          -0.67960779717360   -0.20854841008492    2.05830572539605
N           1.67055788251980    1.76521409915364   -0.02137260775174
H           0.66085709097756    1.97458046815488   -0.25030159178909
H           2.27497372360426    2.07372216644454   -0.83365126253022
H           1.95706747071573    2.13653302656014    0.87828654268918
H           1.60394997294295    0.70881447216548   -0.01867685709632
