    26
        -50.46294017  Gyration_radius:  2.65581651534 Dipole_moment: 5.940
 S           0.43475629325738    0.20774237807209   -0.44677593748878
O          -0.58839276741385   -0.71994633138347    0.07898336770407
O           1.36951243267508   -0.44650318488710   -1.32399480829414
O          -0.22007646825371    1.38673225119906   -1.01387400685404
O           1.17454669238390    0.76464545368326    0.80437474119307
O          -4.03023902664411    1.47255018668289    0.01020938391586
H          -4.41584475872256    2.24982100412513   -0.39702268459985
O           3.95890247868220   -0.75759367997151   -0.74870948273682
H           3.04204083988528   -0.67477920279066   -1.08156099796094
H           4.42454172733106    0.02105892896316   -1.05688513317730
O           1.09660607050841   -2.78427695348715    0.38592838947444
H           0.36625575982662   -2.14440236379382    0.29979055585398
H           1.51876148616281   -2.79919857347885   -0.47763790541061
O           2.71949003477678   -1.05698353873292    1.62497939874819
H           3.40631799118882   -1.00031444900354    0.93022993453384
H           1.81675730657206    0.05781958876086    1.19943969072072
H           2.18065628628589   -1.84140862425763    1.37481765426515
O          -2.52245773586499    0.21675026661123   -1.76348162397046
H          -3.62545608528282    0.94692471693294   -0.72745427285243
H          -1.70353628086634    0.74705863381799   -1.71714150643501
H          -2.27033771138572   -0.63410000024484   -1.38961577074916
N          -1.64476562908441    1.38451540820349    1.13413502262248
H          -1.39025966394032    1.74323312305602    2.04840512373031
H          -1.04954894164905    1.78046787662335    0.35641453196183
H          -1.38369105237652    0.36579070893513    1.01403076151952
H          -2.66453927806876    1.51439636644523    0.88241557427928
