    26
        -50.46428357  Gyration_radius:  2.66459507237 Dipole_moment: 4.534
 S           0.40813941014225   -0.48570938080871    0.53786852551562
O          -0.45183494419723   -0.78309802200892   -0.62590951062779
O          -0.22254594469875   -1.15709924513285    1.77235658325015
O           1.74026534869005   -1.02491223543698    0.34945237762194
O           0.45499269375378    0.95894475198793    0.76309196562956
O          -3.58074601341340    1.20311475948661    1.61393052022550
H          -4.08075573273003    1.12695970538209    2.42838732537973
O           2.37998602326639    1.47584471071969   -0.93222006213220
H           3.09621605897118    0.97008901658437   -0.53755228465790
H           1.65805333203303    1.43427457402510   -0.26037230459182
O           2.61363956569100   -2.34243454785963   -1.74006153204200
H           2.29647377136574   -3.24472809141643   -1.67681687611338
H           2.40068840972169   -1.92284158874161   -0.87128718373221
O          -1.23557618562738    2.29178706502599    2.28098913584912
H          -0.58384553293854    1.75028014409338    1.78285569753672
H          -1.06579727267309    3.19928101439834    2.02217354971555
H          -2.73565715983515    1.64704144944381    1.85669709810844
O          -2.61466002518535   -1.18801855670841    0.91291913257515
H          -3.04775840329249   -0.32761522501050    1.12715227070356
H          -2.18399867826002   -1.06977721763415    0.05330703115689
H          -1.21335525644513   -1.22063920932159    1.57898635875889
N           1.18977833507037   -0.25036416668259   -2.53503056240281
H           1.79776525770070   -1.10369542901151   -2.51878134347202
H           0.38886567610552   -0.46618130542437   -1.85319021858819
H           1.72614087577031    0.53654443078120   -2.06471776097648
H           0.86552639102254   -0.00704741072560   -3.46422792268810
