    26
        -50.46428346  Gyration_radius:  2.66458124114 Dipole_moment: 4.530
 S           0.02378436407368    0.19315474630187    0.80701108315332
O           1.04611206240266    0.22741739348782   -0.25873026807631
O           0.42246803544038   -0.69597494004157    1.87994644644316
O          -0.11067190988762    1.61828054113821    1.37592386324055
O          -1.26495370124103   -0.20977262317371    0.24435895243711
O          -1.54208626874678    3.13236478618053   -2.16350782352587
H          -1.91155005715215    4.00664210929504   -2.02838765751274
O          -0.87080554689947   -2.79276405879148    0.38416046834322
H          -0.78144807567981   -2.90106891583585    1.33532989745882
H          -1.16101061326355   -1.85558038774611    0.27555252198687
O           2.62331158044979   -2.11225218265924    2.00135520683410
H           1.79413060533717   -1.58748349414687    2.11662355564537
H           3.33732502836437   -1.53043009968872    2.26658466021848
O           0.67849429581396    2.85026027103651   -0.70340694862936
H           1.05129113771646    1.98595007849213   -0.93208115972007
H          -0.08885233280119    2.99047387642840   -1.30780012707120
H           0.15993040533817    2.24305144820181    0.62797322019064
O          -3.05375778234856    1.45695929721899   -0.73606361983121
H          -2.12966697171148    2.51240585846475   -1.67309746864185
H          -3.64402207270700    0.86523376205789   -1.20598918563286
H          -2.39364705422212    0.87566886384928   -0.29731879929305
N           1.58591528810508   -2.28286702341222   -0.43395933858874
H           2.18968522442677   -2.41630906954840    0.41200404465130
H           1.98152835509191   -2.68551988402469   -1.27602640095701
H           0.62192495512697   -2.66587715551176   -0.20541936856737
H           1.43657105894336   -1.22196319756754   -0.50503576455351
