    26
        -50.45800469  Gyration_radius:  2.39569166701 Dipole_moment: 3.167
 S          -0.73519555889680   -0.19806963756148   -1.37595742445416
O           0.36892548005487   -1.23851768848165   -0.94065070726117
O          -0.50088786188726    0.17227864347954   -2.74376158875449
O          -1.98803283903208   -0.90620525225931   -1.13552269305464
O          -0.59657489553187    0.93684432223597   -0.45271323497622
O          -2.21937825059366    1.07951509024208    1.57702161252190
H          -1.59598809216295    1.13471932936236    0.80784930270764
H          -3.03383498175842    1.49868469951157    1.29346619911629
O           1.18104660118067    2.10788674989077   -2.22746378608316
H           0.54903714114961    1.47195710770760   -2.63188151693697
H           0.68833218478353    2.48389762928334   -1.49191514402288
O           0.18701547552190   -2.10994908795864    1.69188443058146
H           0.64199526892811   -1.21431798094274    1.81544712875683
H           0.43024311836796   -2.36964734223804    0.79444335859040
O           2.56067074779110    0.13076417717352   -1.21801830293427
H           3.09492727220957   -0.22918540280405   -1.92892308669773
H           2.15450755004144    0.96647116896785   -1.58096975814097
H           1.23543698989236   -0.75915198469964   -1.03253769273566
O          -2.18493547964347   -1.45543491503252    1.26308154784489
H          -2.27070909994930   -0.49740981290783    1.59141156728874
H          -2.15339313669605   -1.32003564666004    0.20834009515615
H          -1.20676905320512   -1.79037569994584    1.53168413801800
N           1.26689753527689    0.27717345909461    1.62843848313011
H           2.18928080566621    0.24549044788399    1.21087206879164
H           1.29683814354816    0.90877140058870    2.41797652609240
H           0.64054492493619    0.67384624607962    0.92839847745145
