    26
        -50.45800468  Gyration_radius:  2.39570973549 Dipole_moment: 3.166
 S           1.47754506552255    0.00643366542501   -0.53890628072843
O           0.18863761113145   -0.40426458171273   -1.11316581441573
O           2.18076764974910   -1.14327519578429    0.02011366843560
O           2.25233255085579    0.81055987003266   -1.44216005364326
O           1.12097899832801    0.87616371087941    0.72896662598846
O           0.21443567602019    1.87467241283714   -2.69020987658770
H          -0.29916798370331    1.06482240775388   -2.76478882425779
H           1.09980219153768    1.56393776295271   -2.39544258750282
O          -0.41916533272114   -0.42025538404881    2.64494542821026
H          -1.12792464353127   -0.16011853476078    1.97088806275280
H           0.27817329272398    0.23342811657187    2.50939022171022
O          -0.70183029712266   -2.78729341399288   -0.56402256715015
H          -0.41797167169369   -1.88701120546540   -0.86768915242365
H          -0.30813906346391   -3.41341327893006   -1.17427224869942
O           0.67985768473554   -2.37475793366060    1.54462420123382
H           0.02935999711646   -2.69158881697830    0.83086044493800
H           1.41312228490992   -1.87185946835578    0.96033046683976
H           0.18609108281105   -1.60517429934391    2.09678276687714
O          -0.27992006991346    2.80883876801667   -0.29970900610071
H           0.18870562287929    3.64245398039173   -0.22289864930542
H          -0.19979347096722    2.54048518777754   -1.25716872109318
H           0.58172463195469    1.63767301026504    0.38494471774491
N          -1.94693895838476    0.33827381921744    0.65518843252059
H          -1.30883020697447    0.07235074228679   -0.09433961211424
H          -2.02713419505405    1.34768535953046    0.62629244003013
H          -2.85471841675240   -0.05876669089942    0.45144590673939
