    26
        -50.46584236  Gyration_radius:  2.39853093583 Dipole_moment: 4.269
 S           0.97327729426648    0.77525972266570   -1.40593164027820
O          -0.40296028217851    1.28099515275887   -0.81318398861115
O           0.76180710895286    0.84269249704211   -2.83511245410539
O           2.02702962626219    1.58527147410005   -0.84835853482597
O           1.08693338859598   -0.63419944678978   -0.96380073510936
O          -1.39180667099825   -1.00249283170866    1.75287591808530
H          -1.76915236887809   -1.56395854616896    2.43086288729509
O           2.27186410657308    1.10612892189767    1.70453296780673
H           2.94173543481195    1.70458429198718    2.03902855674019
H           2.24965707959023    1.25420861295726    0.72326731597159
O          -2.62364207911299   -0.35431409079262   -0.63126714043391
H          -2.27491983941694   -0.69128689614956    0.21657959490184
H          -2.30837620753451    0.55833719536634   -0.67038117904361
O          -0.39095604039723    1.57970498330378    1.73801282947447
H          -0.83659877919148    0.73893594180971    1.93790982751105
H           0.55907402873245    1.45127937151085    1.92815538120070
H          -0.35080090522697    1.48883755431034    0.17166158890377
O           1.17005659869465   -1.45402004128323    1.53571041885641
H          -0.42966139226210   -1.26200955301854    1.67441447448307
H           1.68159511976828   -0.73079095495695    1.92377717125064
H           1.23253370878198   -1.28238143160425    0.57204290434046
N          -0.87553341211204   -1.11382819014854   -2.47055314714614
H          -0.49054963391730   -0.24735253231608   -2.93258979665195
H          -0.05530893545880   -1.26840646810765   -1.80246890274755
H          -1.71067975773852   -0.88521183537200   -1.85737090672310
H          -1.04461717058212   -1.87598289136705   -3.11781340111924
