    26
        -50.46584232  Gyration_radius:  2.39851435125 Dipole_moment: 4.270
 S           1.66154875646103   -0.32588688654793   -0.81148339572381
O           2.04512940543384   -0.90316462431998   -2.08080638113392
O           0.82961757664059    0.88219477936976   -1.02079556745361
O           0.67421870163613   -1.40382080121956   -0.20801791999297
O           2.70442807355336   -0.08208473132790    0.15307024948185
O          -2.22698839341314    0.31630114732376    0.97798373312682
H          -3.05895063474701    0.66567249136422    1.29913500462435
O           1.72307039073257    1.12474593321388    2.24772996244621
H           2.43844672858166    1.21720460622681    2.87901791486317
H           2.13552718962570    0.73270532310457    1.43444971952801
O          -1.96729668088259   -1.59291489406937   -0.99951797973283
H          -2.18593445217609   -0.89448661059064   -0.35269976386757
H          -1.21910729156804   -2.05758841675462   -0.60171862346404
O          -0.44002926671023    2.21558168184607    0.85996982974713
H          -1.60593829204260    1.09532209920803    0.89649369523418
H           0.04324121166124    1.86596098589546    0.08141146006625
H           0.20243581512860    2.12833054797814    1.57755394261759
O          -0.06376810286767   -0.90563851689484    2.20127665230639
H          -0.92869826635103   -0.53031219238813    1.96365928659972
H           0.47544720601989   -1.24801300979223    0.76775322924377
H           0.52374834571457   -0.15482961518664    2.41619644815889
N          -0.38973838266944   -0.43851104160713   -2.78679940489794
H          -0.69987334021353   -0.17481633929242   -3.71560872995183
H          -0.08422265619263    0.37891676044934   -2.16856204738853
H          -1.12190306174894   -0.96654049499641   -2.22940993818885
H           0.53558942039668   -0.94432817098150   -2.78028136626063
