    26
        -50.45825732  Gyration_radius:  2.46804790267 Dipole_moment: 3.056
 S          -0.67681146666508   -0.04965836261738   -0.82472334512684
O          -1.43617021331339   -1.18976846815074   -1.26905501743938
O          -0.61487693397446    1.01886809760683   -1.97367478534196
O          -1.29610115973119    0.64710294989656    0.30673733940194
O           0.71991598040040   -0.37590950245202   -0.53004209516178
O           0.95485285841972    0.50069813370711    3.29528638944356
H           0.36620550074699    0.40003547582036    4.04555960781452
O           1.73439891865032    2.00854752633914   -0.42991321348198
H           1.29610206229191    2.41996418077578   -1.17998262784401
H           1.52474690311835    1.04352499633333   -0.50440860570280
O          -2.00044355876953   -1.88800950213726    1.28547504898607
H          -2.35594270013386   -1.01779378136105    1.48728492780109
H          -1.89546915310845   -1.88204218503479    0.31855356127349
O           0.19158677339348    2.16412933365630    1.57951503549168
H           0.93150718993540    2.24673146604681    0.87269087388563
H          -0.52161916358795    1.57769737301761    1.07015085313433
H           0.55144754673370    1.53012191084650    2.34055105528329
O           0.63461841267815   -1.60883066340737    1.85322053558004
H          -0.30777409055905   -1.87207063061010    1.81245970341081
H           0.83419450390478   -1.27853461087816    0.95853493593334
H           0.90429380260154   -0.36461490864839    2.77559097885967
N           0.15439373265216   -0.86575579236567   -3.58726797998696
H          -0.44673637412143   -1.43701375130409   -2.99797494595250
H           1.11298188801053   -1.12015169948478   -3.38514861627339
H          -0.03750627270631   -1.08069853057119   -4.55756751093119
H          -0.32179499727643    0.47343092528351   -2.76185211299269
