    26
        -50.45266473  Gyration_radius:  2.64539063564 Dipole_moment: 7.518
 S          -1.14945252935893   -0.59965462604769    0.61936058076985
O          -1.92906527644299   -0.64394995714790    1.83365784064935
O          -0.08420038979999   -1.75533057696923    0.74698211613542
O          -1.88101139628155   -0.77171946049522   -0.60915575399351
O          -0.31937643780447    0.63896210304071    0.58930104586831
O           0.34128686578924    1.85313881875600   -3.26223171502787
H           0.65755803951341    2.75733861280617   -3.23889872723233
O           1.92772700431596   -0.08725854283259   -2.35279763164718
H           1.34679747782569    0.64775028572384   -2.66196330149982
H           2.43509008285196   -0.35700935317770   -3.12057401597840
O          -0.64811193158207   -0.34832466032561    4.05618584449198
H          -1.21293268061586   -0.56538406800506    3.26325188491967
H          -1.10402891855177    0.36851670172013    4.50144316059228
O           0.19382876047551   -2.04667537868294   -1.75465143576597
H           0.84708051307829   -1.34406466128345   -1.98154852629733
H           0.11548640796764   -2.01810370444564   -0.20955261261840
H          -0.68238904618162   -1.63117154607766   -1.78716427883186
O          -1.60253338361909    1.79943582160521   -1.45769270223084
H          -2.12389381345125    0.99068342777412   -1.54297043840000
H          -1.06225873363682    1.61730867359045   -0.66878625228583
H          -0.44579692743161    1.83196322151902   -2.66311148044887
N           1.32475584031712   -0.05793788187251    2.36105216512222
H           0.67377065463648   -0.12482232331125    3.19955144200755
H           1.53265794055702   -1.00363597878309    2.04026322443541
H           0.68267384689402    0.37053226689983    1.55991442862491
H           2.16633805053920    0.47941281603908    2.54013515866087
