    26
        -50.45266471  Gyration_radius:  2.6457290682 Dipole_moment: 7.515
 S           0.19388170108420    0.90019292032344   -1.10318546980225
O           0.38147886657763   -0.13752509210399   -2.08397338995883
O          -1.34919756299384    1.07032861131736   -0.82637510645358
O           0.74495140882092    0.50035963417553    0.22375502917678
O           0.67784264202385    2.21119878014387   -1.46567031758621
O           1.11661117635571   -3.56599924121241    0.48312476802034
H           1.68472708269183   -3.76352407385054    1.22901501053016
O          -1.31450052798007   -2.57590755258415    0.95016254340484
H          -0.40246150710828   -2.91982953098408    0.79785190371629
H          -1.87314744514341   -3.35110952259453    1.03176294337067
O           0.34978606791354    4.10009278658813    0.26464425645128
H           0.43559144991625    3.46533102363722   -0.49983229721026
H           1.22684946055710    4.46920603251743    0.38509689983607
O           2.28608769085139   -1.49350457526642   -0.68927672692577
H           1.88384764193338   -0.78252836431505   -0.15998224330186
H           1.58169916485037   -2.85478858862293   -0.02336501504090
H           1.90891626045044   -1.33901182117052   -1.56499399069347
O          -1.91263786465285   -1.34238521530531   -1.35748104180871
H          -1.74186762094179    0.16129818175305   -1.03445576949759
H          -1.07939973829290   -1.31020868516290   -1.85359512332873
H          -1.71674153395836   -1.80148238761694   -0.50744505268160
N          -0.63475075003473    2.08251941476748    1.61021843767861
H          -0.65317662819518    2.01688979860663    2.62237148398200
H           0.02543289627191    1.32956840413059    1.12583488361701
H          -1.55262208804066    1.91787977882687    1.19682870730684
H          -0.26720025307471    3.01293929401500    1.24896466716540
