    26
        -50.46438037  Gyration_radius:  2.41486327832 Dipole_moment: 4.123
 S          -1.33617147724194    0.91342997564320   -0.23139652871803
O          -2.40412629628939    0.94101985747517   -1.22019444484965
O          -1.28549525621584   -0.37745972384488    0.45475672754298
O          -0.04975744509942    1.20645559938041   -0.87109797823363
O          -1.61332846404791    2.00503103488098    0.83118371897114
O           2.01243116518719   -0.11674152171073    2.15531775533006
H           2.59174960567460   -0.12106272441422    2.91852160583460
O           1.89065609331106   -0.62463241299089   -0.63527872697847
H           1.26783587328136    0.11870246883380   -0.75848578928768
H           2.12723193784207   -0.59067047674458    0.30201188679741
O          -0.23697548354574   -2.04867407300049   -1.28031139570792
H           0.69216300202642   -1.76471820888341   -1.09817103521754
H          -0.74145119685512   -1.61116831165350   -0.55766792136296
O           0.90659646292464    2.28202312303348    1.38234870750748
H           0.93154805804758    2.13931167028645    0.42397325416389
H          -0.72491212124035    2.20938331942940    1.23175122658978
H           1.33289875513356    1.49005257666683    1.76412669308423
O          -0.33152319630923   -1.17655026359887    2.76404203631462
H          -0.78382925354813   -0.82035015257039    1.96644892724335
H          -0.47035108504854   -2.12501018652489    2.73721410897129
H           1.16821952467630   -0.54674821400606    2.43822380580321
N          -0.99201281894740   -0.28052854901636   -2.99035960937287
H          -0.66141208889070   -1.13502943048431   -2.37417943989280
H          -0.20005492174984    0.34908250332091   -3.10749191406019
H          -1.39043394410815   -0.55837206064378   -3.88175750674806
H          -1.69949544896603    0.24322418113459   -2.36352816372817
