    26
        -50.46438041  Gyration_radius:  2.41486717377 Dipole_moment: 4.122
 S           1.36023149504232   -0.81720768834803    0.39346006509595
O           0.07590086884709   -0.90022396690477    1.08874456875518
O           1.88489579439293   -2.14280073868808    0.09936488914329
O           1.22554134527078   -0.04275462623469   -0.84429455160902
O           2.35659500412365   -0.08252427717934    1.32349692145124
O          -1.07921395064104    2.62490205201027    0.80998626355620
H          -1.37661993066976    3.46502193321135    1.16180816629857
O          -1.20540458416500    0.90632777180898   -1.44708449252023
H          -1.36151420555101    1.58471517039128   -0.77553441568630
H          -0.27632765803516    0.63462689046594   -1.31054123547043
O          -1.66804605184042   -1.59740506285779   -0.74841836718923
H          -1.15550161224913   -1.45470650683455    0.07927434852346
H          -1.76749131001156   -0.67978402979652   -1.10220443048736
O           1.62545253990619    2.25396890661068    0.46516492587292
H           0.69603150034431    2.48871312058543    0.65470477900342
H           2.17516641406766    0.88670170583370    1.18497986395839
H           1.58725834681373    1.72739659536832   -0.34768459928359
O          -1.25929033861339    0.73324536338484    2.64757520873515
H          -2.08119765365430    0.26276931690617    2.79824012385632
H          -0.67888063764654    0.10353422269117    2.16360934568752
H          -1.19536442172192    1.95881058263418    1.53142700718235
N           0.42592888018032   -2.41094558306367   -2.00293862061299
H          -0.55094533683449   -2.15254880821944   -1.55773667172157
H           0.41143379640492   -3.28058519824815   -2.52642509175363
H           0.72822072043414   -1.62615936636340   -2.57745162499849
H           1.10314099580372   -2.44308777916098   -1.16152239578761
