    26
        -50.46438040  Gyration_radius:  2.41485429527 Dipole_moment: 4.122
 S           0.42338326464235   -1.49555627676938   -0.50657104286743
O           0.59506702680645   -2.13146839360939   -1.80468416558624
O          -0.97128867874214   -1.07864936278607   -0.33038682454679
O           0.77014847090962   -2.52144685530866    0.60011948366311
O           1.32333822182294   -0.35223680018796   -0.35581257061567
O          -0.12881247394524    1.26374726759383    2.66402251636308
H          -0.09625351701726    1.60715065533099    3.55790398823709
O          -1.43169359306601    1.51514015980195    0.15336806273960
H          -1.07456666454995    1.65120540212690    1.04190567071913
H          -1.37644087448713    0.54948485400627    0.01155544370816
O           0.29151573656500    1.54911551530234   -1.84672009218876
H          -0.37643923587571    1.81517608611246   -1.16839083746974
H           0.87742473491898    0.93889147442148   -1.34424767246406
O           2.31328127176110    0.92418337804244    1.71093741560779
H           2.02377748677868    0.34995847541335    0.96656845498791
H           2.79445319903260    1.64818308454941    1.30611509001542
H           0.80770442055159    1.18461589858846    2.35691720034691
O          -0.80210980892263   -1.38208147177573    2.32069116520882
H           0.28944915058471   -2.20128555187536    1.41125861728344
H          -0.55045275477658   -0.47024524394228    2.56577723462871
H          -1.30985337358128   -1.28708271109821    1.50055326784443
N          -0.90113082206697   -0.41550924070238   -3.00350157533066
H          -1.78939761008455   -0.52636460352222   -2.51767477746869
H          -1.01613589218469   -0.43079498075585   -4.01199760399316
H          -0.42117260070591    0.50708157776795   -2.63235776041148
H          -0.26379507437004   -1.21121232672410   -2.64534866841219
