    26
        -50.46438041  Gyration_radius:  2.41486099627 Dipole_moment: 4.121
 S          -1.56778175527570    0.19665678557563    0.41936853755493
O          -0.87253396904060    0.89608667165083   -0.66101414646913
O          -0.72313379984938   -0.86816177366056    0.96951987008570
O          -1.85326843385701    1.22336304054993    1.54268617614650
O          -2.83286238691109   -0.35644775900613   -0.04170647398117
O           2.49645129128838    1.31972165919126    0.85815854307270
H           3.24867765703577    1.83171446589830    1.15824405627341
O           0.08563236988286   -0.99488131742843   -2.21303716465152
H           0.87132638541805   -1.16580114165624   -1.63808920499255
H          -0.28603736844990   -0.16842786638024   -1.82966833800706
O           1.69354997247986   -1.21815432383854   -0.13084811991333
H           2.18348297396184   -0.42642265118171    0.13123752473388
H           0.85046942605343   -1.15924578606989    0.36047272092675
O           0.46231227341679    0.84204323431197    2.64869827521185
H          -1.00888432930379    1.27559963938108    2.06783246052935
H           0.23490390573336   -0.05454519405021    2.35910614144789
H           1.22770810208949    1.09621860166373    2.09696997966068
O           0.96142684733234    2.77026492973766   -0.73156900233414
H           0.19183541803691    2.16083735528435   -0.66850164915400
H           1.97978323560991    1.90482334871733    0.25124721883383
H           1.15057676906156    2.85074532039638   -1.66822284972043
N          -1.71484892151695   -2.43363770710622   -1.06910297478004
H          -2.25150300380863   -3.11177830703515   -1.60074797940621
H          -0.94041882833687   -1.92284769954680   -1.66796556203643
H          -2.32588601325691   -1.63104832592871   -0.68166299537362
H          -1.26097777779576   -2.85667518947276   -0.26140502365827
