    26
        -50.46438040  Gyration_radius:  2.41485880869 Dipole_moment: 4.120
 S          -1.27967591452228   -0.62665164497396    0.80106916654822
O          -1.47487106444430   -0.14916422466617    2.26099309862451
O           0.04986327274955   -1.22829064543390    0.70024897293698
O          -2.31949286062716   -1.59411105991759    0.48207728133113
O          -1.38571246075745    0.53719736254947   -0.08445483608844
O           2.18451567859867    1.81678097925761    0.79860500612002
H           2.88077320259793    2.37043119937627    1.15458479445268
O           0.52053457679469   -1.45268141796407   -1.87477950048408
H           0.79370228317917   -0.50837609142380   -1.97848183709468
H           0.47597912199085   -1.55788209646919   -0.89749708764176
O           0.75698070369922    1.15880937978908   -1.56638003649108
H          -0.06683039971037    1.04039834908758   -1.05357832663114
H           1.40503773017054    1.46657472003722   -0.91764036192624
O          -0.36138476640103    2.14611767732932    1.78947638357700
H          -1.02752454658000    0.73930475796894    2.30595838729473
H           0.58100357361217    2.10061128985927    1.53517445790409
H          -0.84812590843378    1.99301458633574    0.96540603176096
O           2.39158562710926   -0.64834766101297    1.73020196221270
H           2.33178630167472    0.90871794106745    1.16103952652613
H           1.48075695878785   -0.90604826502495    1.46253928359120
H           2.97290499449834   -1.28938658619716    1.31702578218824
N          -2.03983224276310   -1.27313964165585   -2.05544340685211
H          -2.55403073339830   -1.84472320216782   -2.71832485640534
H          -2.24154484882943   -0.28158726329560   -2.17151052784822
H          -2.28060665121260   -1.50844860173700   -1.02865920285991
H          -0.94579162778541   -1.40911983071770   -2.11765016474409
