    26
        -50.46378414  Gyration_radius:  2.40561795095 Dipole_moment: 6.533
 S           0.09721806544925    1.35076883160761    0.26013550926712
O          -1.34093563602437    0.81912490116540   -0.01833071007976
O           0.28848253173964    1.57745770522241    1.66265821603869
O           1.01309512079155    0.30969706173338   -0.25105266361990
O           0.17886609950292    2.55264467002994   -0.57218997679096
O           0.41944203090338   -2.32377344502862   -0.22662652129944
H           0.69751327845521   -1.38764038480068   -0.24808023138938
O          -0.01463414983484   -0.62932115589545    3.15608542372371
H           0.01319018013059    0.29512254486488    2.84681640044189
H           0.84343763242716   -0.99039698469794    2.87463870062967
O           0.24358245750975   -0.36345456133846   -2.66835964170429
H          -0.05126822612268   -1.26184902494248   -2.49190370644618
H           0.69219387605119   -0.07787975237163   -1.83806915278155
O           2.34630971669487   -0.90683368026044    1.75965872340633
H           2.96697035808974   -0.32706156483974    2.20338230402688
H           1.07090367510407   -2.76120326337412    0.32672416396815
H           1.94762028345105   -0.37292200585252    1.04589249577046
O          -1.64284919607627   -1.33821195530151    1.22423826128754
H          -1.51782578956338   -0.04850827617672    0.52562491623676
H          -1.05280248429145   -1.91803372175290    0.70266677812905
H          -1.15939245757459   -1.16538726427444    2.07526775080794
N          -1.23626931544485    1.80495092991994   -2.50923634813694
H          -1.30929876797400    2.42444437928804   -3.30970363597764
H          -0.74749095219367    0.89473790579216   -2.74690086555754
H          -0.60216310242653    2.23604937639394   -1.68848400351889
H          -2.14389522874723    1.60747871484116   -2.09485217639697
