    26
        -50.45940114  Gyration_radius:  2.54132882325 Dipole_moment: 6.831
 S           0.53828140641057   -0.26305681429105   -0.88157979565789
O           0.85827991008124   -1.16097125419860   -1.99896895187085
O           1.52585175545706    0.76569032418028   -0.66520670340251
O          -0.81445662408081    0.28163522901455   -1.03056397670858
O           0.49220431682557   -1.21618985907646    0.34968118472578
O          -0.72291282353092    2.44402128746440    2.00449273848996
H          -1.67685508924819    2.42179428445937    2.08954011873864
O           2.94015363070796    1.15015791973960    1.56609394200811
H           2.55683211231988    0.97538020159553    0.68253185562915
H           3.00073165274345    2.10420326306446    1.64554274076969
O          -2.66521115951439   -1.49780664654744   -1.35253149379415
H          -3.12502051877311   -1.24153714646250   -2.15411504012196
H          -2.02951242162294   -0.75579116472980   -1.16250134052575
O          -0.27459513190785    2.84260717997373   -0.59161818040089
H          -0.54014456145881    2.69511139516631    1.06711625767645
H           0.67045193216032    2.70805200673490   -0.72109271759235
H          -0.65275057211722    1.97665007764940   -0.83904582804170
O           0.60519501217554    0.16229353292880    2.43996117462413
H           0.50659363619158   -0.65967186339274    1.22701471427810
H           1.53635356832004    0.46212976180887    2.36176469954602
H           0.06705566277863    0.98190881709008    2.34157406558116
N          -0.57093348012028   -3.08885100244613   -1.28015486808308
H          -0.51249078994934   -3.97965540762449   -1.76185584276773
H          -1.52853966552706   -2.64299616397575   -1.34002416116672
H          -0.30313500225463   -3.16379698757189   -0.29953806881231
H           0.11857325418651   -2.30131097993500   -1.69651653267410
