    26
        -50.45800464  Gyration_radius:  2.39566323219 Dipole_moment: 3.161
 S           0.76771241746370    0.06659659387607   -1.37093475051490
O           0.41632072222457   -1.34446076190073   -0.75745556330861
O           0.52150415707328    1.03840670896227   -0.29630980535623
O           2.13913710285203    0.05144669355000   -1.79708790006412
O          -0.20883263518690    0.22777641137003   -2.44293839822584
O          -1.72977503785584    2.34406613371763   -0.30597639984311
H          -0.82879066873996    1.93356873937379   -0.25110362501226
H          -1.64342440228295    3.10642221745719   -0.88110035689766
O           3.15722773189900    0.75230010908155    0.50861039349316
H           2.98626762140975    0.53509307555951   -0.43522093691149
H           2.50888939074568    1.43449761515064    0.70730493559938
O          -2.18277092774214   -1.59616900607594    0.19359921417419
H          -1.45262089968474   -2.06621835988559   -0.22818182607563
H          -1.74229549120958   -1.10596758827290    0.96167938796095
O          -2.48919707252903    0.21598705447358   -1.49786060166109
H          -2.40370244821971    1.08949154188413   -0.98545929974327
H          -1.55095294306811    0.16584044414261   -1.99715808083888
H          -2.46504588319800   -0.57182129418231   -0.77696877276730
O           2.06050576814312   -1.50163630186304    1.24945390978617
H           1.02648385524127   -1.45473221993997    0.02005878992268
H           2.71035488120536   -2.19124341167090    1.09910281385391
H           2.54089317973784   -0.64011713899590    1.10031737263765
N          -0.73561172488928   -0.26818353651635    1.92890994231853
H          -0.24149890809895    0.31363429508715    1.25288042737389
H          -0.04308868303699   -0.87070494953323    2.35735196184648
H          -1.11768911225977    0.33612693516472    2.64448714823695
