    26
        -50.45852410  Gyration_radius:  2.50926051784 Dipole_moment: 1.942
 S          -0.74602314409084   -0.05044172117619   -1.20509742024686
O          -1.48578792932465   -0.81434032073505   -0.21215968085924
O           0.43335945539833   -0.76844024399963   -1.66904820607532
O          -1.69515676827197    0.19123739198174   -2.40198580443188
O          -0.36698682839199    1.26913919082619   -0.67373010020159
O           0.09104875945358    1.30250241639099    3.10275690373330
H          -0.32591149390685    2.15718207733436    3.22469831938413
O           1.94436918266874   -1.19594492827711    0.42754686224038
H           1.52602106420771   -1.13074182426698   -0.46406092545296
H           1.33249050540436   -1.76951064923455    0.93432689674617
O          -0.20131543917204   -2.60227708848114    1.25306557493582
H          -0.24791689488602   -3.48049037058826    0.87231978193797
H          -0.71769043033953   -2.01738160973646    0.65319003158493
O           1.47707373368700    1.19680318785156    0.97676594009766
H           0.99242069521371    1.25580220242369    1.88373726906923
H           1.78987484780512    0.19556768329650    0.83912198671079
H           0.71553929900287    1.30562862725835    0.25117798201897
O          -1.78776890319433   -0.37524113936850    2.41286853397570
H          -1.83893410833718   -0.37899352422647    1.43652825815351
H          -1.48575986075765   -1.25989202801117    2.64363342556026
H          -0.64578189955065    0.66016584648010    2.90242625913434
N           0.32862617489612    1.34601492639054   -3.55370999595484
H           0.85405730012021    0.57943059417438   -3.14356501960706
H          -1.09840234583998    0.68890574899511   -3.02776290453728
H           0.48048615061747    2.16423049972660   -2.97782261875050
H           0.67806886742405    1.53108506497392   -4.48522136952781
