    26
        -50.45800459  Gyration_radius:  2.39567075846 Dipole_moment: 3.161
 S          -0.28816862137272   -0.94673076867899    1.22214396975717
O          -0.80408099796673   -2.27368837934365    1.41109887283776
O           0.02659985201561   -0.22723150789867    2.45179482670861
O           1.10362887095985   -1.04872204103727    0.48495200747771
O          -1.14088438963590   -0.12918954328394    0.34788667044476
O          -1.41736903897608    2.39713219332592    0.90885322234524
H          -2.11167653280613    2.49504030284877    1.56290173204161
H          -1.41207539115699    1.43989563447011    0.65013792228511
O          -1.99746084479880   -2.44443909547268   -0.91066435590689
H          -2.36957554836221   -1.55747601041739   -0.90370171400444
H          -1.67205280050311   -2.56867231838624    0.00905895182537
O           2.32900783615477    1.38698859297253   -0.05315969110067
H           2.48845878548930    0.46230385524627    0.17361690703794
H           1.65561430033965    1.33781303736004   -0.80716124038992
O           0.90499391993032    2.01301984749991    1.90113912781976
H           0.60076922833617    1.04727951026360    2.22794728829441
H           1.56923556702556    1.83572836763543    1.08370273255330
H           0.04208006204475    2.37884737589267    1.50803712787788
O           0.45738108252851   -2.17492338171734   -1.76671103612486
H           0.90922234820538   -1.48000316303760   -0.38981869056819
H           0.83233023323493   -3.05622336552632   -1.82257576094056
H          -0.51391463809843   -2.30528559214132   -1.58025827338310
N           0.42382635672341    0.95505648630743   -1.80029839908524
H           0.66598653464102    0.18800306994675   -2.41605412571124
H          -0.01627970694512    1.67932470880359   -2.35252989190045
H          -0.26559645697868    0.59615219459310   -1.14033817020651
