    26
        -50.45852417  Gyration_radius:  2.5092027737 Dipole_moment: 1.937
 S          -0.29682649247009    0.66250603388087   -1.21881680401359
O          -1.33636108266551   -0.18651283379235   -0.61390304845018
O           0.80935495551322   -0.15443009243954   -1.69912243515018
O          -0.94240016613870    1.39593705570730   -2.41764679491743
O           0.15207061341310    1.67845865764598   -0.27916864897048
O          -1.03393457345069   -0.48782449779756    3.16578342657965
H          -1.97816458252035   -0.43749458816290    3.32417824327957
O           2.35847606943549    1.25632267773642    1.11622311103724
H           1.59405834443699    1.47857814503112    0.53750712826408
H           3.13081283641425    1.63279497947516    0.69182846400599
O           1.88379104060398   -1.29767067246543    0.39843311507682
H           1.62257989309037   -0.97099692288879   -0.49561064927843
H           2.18821914379073   -0.49152982222703    0.86506928180559
O          -0.26521524566855    1.87439949565741    2.35974682711809
H          -0.32145919534868    1.88858362253672    1.38379606080476
H          -0.74406164746051    0.43492993850527    2.92052154233697
H           0.67532177526102    1.95374563726281    2.54999348192107
O          -0.47437373068817   -1.79383677171988    1.06043751428813
H           0.56246545787971   -1.69066596504121    0.87748937227655
H          -0.68386523982062   -1.34020759167910    1.96128583326371
H          -0.90454709202496   -1.16296099704960    0.32896646357487
N          -1.24950010591913   -0.95929679594702   -3.47370322713930
H          -0.32177156482782   -1.12526484561627   -3.09449126246603
H          -1.91702891655243   -1.40015433770029   -2.85384913093113
H          -1.18875326599937    0.62944342808211   -3.00668068417725
H          -1.31888721821948   -1.38685291694652   -4.38826720005134
