    26
        -50.45852411  Gyration_radius:  2.50918475452 Dipole_moment: 1.942
 S           0.05014451910472   -0.25008018923512   -1.39511820395113
O          -0.21377973582831   -0.38594953338403   -2.91288845531996
O          -0.43018485116844   -1.46792977180001   -0.76044917956272
O           1.47653996003192   -0.05356329968020   -1.17474526584732
O          -0.70776271975777    0.92008121514943   -0.92221949918428
O          -2.06310789614053    0.51803618367546    2.60863615084885
H          -2.90542688182111    0.93408884646218    2.41744614683533
O           1.83872801583934    0.09395109898255    1.41533822877143
H           1.90554387048512    0.06794769034351    0.43089401316867
H           1.54348664160470   -0.80889179577644    1.65606391464439
O           0.86017933152615   -2.41611400708869    1.34411638893941
H           1.51588862303854   -3.07072445830703    1.09936217249880
H           0.42536709835626   -2.13937381572660    0.50563777391501
O          -0.13533562887956    1.62600774621899    1.38079630502205
H          -0.39918545997750    1.40545719406872    0.38079068365157
H          -0.89398282467972    1.22624734077624    1.95155896509775
H           0.72982962785456    1.03583934166397    1.52995117791109
O          -2.03993038025084   -1.77472321082803    1.35829758977801
H          -1.64634721326957   -1.62796578987894    0.47542910014775
H          -1.41216811817895   -2.34658459453303    1.81211424642892
H          -2.09365082198052   -0.38155823552807    2.17799942127089
N           0.97392030335708    1.91367367292005   -3.15235049740528
H           1.60464956941756    1.53221095743098   -2.45327145033391
H           0.16783786335556    0.46977060940421   -3.25546460154526
H           0.34086023203480    2.54689998669561   -2.68077393464510
H           1.50788687605504    2.43324681784223   -3.83715119096708
