    26
        -50.46277159  Gyration_radius:  2.42495682393 Dipole_moment: 6.146
 S           0.87642018373036   -1.32789277784232   -0.04225907372597
O           0.73780650427806   -2.66833091828563   -0.54448950811313
O          -0.60121829562252   -0.76046251816067   -0.06557865632357
O           1.34656120650195   -1.20195228689853    1.32432493295345
O           1.64962302468753   -0.45589959337737   -0.94424577140197
O          -1.44503890611027    1.87861568523109    2.35507374139785
H          -0.88474679616587    2.38753145682922    2.94387374501532
O           1.96729618633332    1.38542499371837    1.06975672248138
H           1.80302107238811    0.45272542294893    1.31944603950429
H           2.65937155640672    1.33306521589618    0.40647155486524
O          -0.92991836012646   -2.09328065783760   -2.49114887018878
H          -0.25265810172810   -2.40575199456336   -1.83915981072437
H          -1.77287009063347   -2.28842665593362   -2.07579665796176
O          -0.40285706491733    1.79445243392849   -0.06965407016878
H          -0.93768290161129    1.98764190337948    0.73784037498549
H           0.52499325491663    1.81153207457139    0.26778021421072
H          -0.57184125529286    0.24279535566496    0.00098156000788
O          -0.80498820291241   -0.69330330266872    2.83245678284019
H          -1.44677370970996   -1.28461520349048    2.43505454290744
H           0.04559373649872   -0.90048298949632    2.39461533626590
H          -1.27309593231550    0.93599870581029    2.58077249225092
N          -0.07903765365949    0.40687585123486   -2.55657114192030
H           0.18904260991528    0.78163070252648   -3.46011404292786
H          -0.60080429942132   -0.51311699290466   -2.64079560056948
H           0.78833532348609    0.10067826724539   -1.94730812280920
H          -0.58453308889277    1.09454781251393   -1.99132674284339
