    26
        -50.45688581  Gyration_radius:  2.5397240013 Dipole_moment: 5.615
 S           0.92846932711773   -0.18358745535333   -0.40229811001700
O           1.62917852154502   -1.10852929991602   -1.29140417340775
O           1.56122436561057   -0.32204200832295    0.98447486465402
O           1.07813370721263    1.19798845528857   -0.88190032293082
O          -0.49142190646700   -0.52558362921140   -0.30434208346775
O          -1.41536964092743   -0.81690733043595    3.42327575319160
H          -1.21646157188929   -1.21258821427609    4.27325679217368
O          -0.46674523808645    2.72126990346127    0.63818178727733
H          -0.00313525018734    3.55948009060197    0.68813538393789
H           0.04349817517997    2.16602590923234    0.01001346010470
O          -1.63742256489039   -0.41459689940660   -2.65416088009818
H          -1.33197062817083   -0.39653641185481   -1.71216970184977
H          -2.08479478696773   -1.25590437198855   -2.76213013096768
O           0.28105320729630    1.07467648752660    2.60654598519833
H          -0.15771097042607    1.71901671660200    2.00731992362943
H          -0.42368017894198    0.46943782115333    2.94028694775815
H           1.05907523219094    0.28221554679697    1.69465959264862
O          -0.36549908516803   -2.42379706316450    1.53926651331407
H          -1.15715607057791   -1.47789779291010    2.74160046435453
H          -0.53966730933901   -1.80177876677878    0.80373535360701
H           0.58717241600761   -2.39220114820530    1.66219012347778
N           0.83196759722263    0.23870895959739   -3.27007261906287
H           0.92890857834780    1.02922319253897   -2.59225479889596
H           1.30075305916772   -0.52348752844436   -2.66290710972760
H          -0.19370601417766   -0.00862216970125   -3.30310028514372
H           1.25530701934759    0.40601701733970   -4.17620272980263
