    26
        -50.46460205  Gyration_radius:  2.41142071649 Dipole_moment: 2.664
 S          -0.23119514806246   -0.10626845612771   -1.37230617019405
O           0.04027029694590   -1.18341593244714   -0.41181073005009
O          -0.25564613840798   -0.72957722524174   -2.78657570233511
O          -1.55537047488220    0.47053558514870   -1.10472632104907
O           0.81225647326430    0.89932715035129   -1.34617890504600
O           2.05213851712773    0.68078892135968    2.15094793353455
H           2.77713551711062    0.67071429196326    2.77675366230155
O          -1.51270146139919    1.61969987156553    1.10722375939613
H          -1.66098860772416    1.21397467642069    0.15776990605302
H          -1.18896462947912    0.78259644100793    1.65367017468987
O          -0.44055172905381   -0.43187454741764    2.07362346878608
H          -0.30766117065224   -0.86540188842981    1.19848757508989
H           0.44360280151052   -0.10724441154245    2.32979565614340
O           2.61511335579379   -0.65103256518482   -0.03217218620331
H           1.75220173374776   -1.09935642184327   -0.13386443177579
H           2.57703011137315    0.03484081808043   -0.71099606164859
H           2.35432340961097    0.15631166617203    1.35637878586168
O           0.75486980275645    2.59028722855356    0.68081424154732
H          -0.62922137757135    2.18660569093814    0.98792212538858
H           1.31645001450443    2.09306658806658    1.30538837257082
H           0.85799824423540    2.12651363694122   -0.18119024081897
N          -2.23027413782836   -2.18537508614718   -1.94791838965622
H          -1.00096784552889   -1.39112866482792   -2.70989330554541
H          -2.64491062652525   -1.33756969506724   -1.57565518349586
H          -2.96299521925837   -2.80174446795355   -2.27578777012109
H          -1.73194173161041   -2.63527320434026   -1.18970027343410
