    26
        -50.46234969  Gyration_radius:  2.43318478734 Dipole_moment: 6.649
 S          -0.72377541556826   -1.13635010381623    0.45236997393279
O          -1.47379178645186   -2.19264538739585   -0.22812428143011
O          -0.47998240134526   -0.10434815221627   -0.71382426193302
O          -1.45790036431573   -0.45163024683561    1.49593820696397
O           0.58506723415704   -1.59425623954595    0.88910100862390
O          -0.28332795513505    3.44584127325397    0.52430094306446
H          -0.21295828831895    3.70672535800696    1.44460580669070
O           0.79294900348873    0.55504674287232    2.58476579853859
H           1.27036818087948   -0.27489877578483    2.67277113785712
H          -0.11742284387621    0.28134217417722    2.36457264614789
O           2.15205356973658   -1.25180546049965   -1.12780248666395
H           2.24500265663864   -0.29257403001409   -1.14198952818232
H           1.72892971844677   -1.44384335098397   -0.25214567301741
O           1.36014243991514    1.40872393521898    0.12080175832148
H           0.89653601147360    2.28091184148122    0.13480223914989
H           1.34354842739955    1.12738256896032    1.06670731444745
H           0.25752514708790    0.54527946700821   -0.41872295734200
O          -2.40181699104357    1.78970372522921    0.37976018106222
H          -2.45873121487793    1.49019607490172   -0.52993626856640
H          -2.15754314446816    0.99601554920544    0.89681853087444
H          -1.11788802720761    2.92882639415798    0.45783451270663
N           0.05617521955048   -2.37797661225612   -2.24632365088004
H           0.24851175721112   -3.33202243840294   -2.53710169951268
H           0.95223788647166   -1.89498671268062   -1.89874934007625
H          -0.35524112924440   -1.84260260962969   -3.00521477197208
H          -0.64866770059990   -2.36605498439891   -1.38521516878832
