    26
        -50.45760692  Gyration_radius:  2.49465376209 Dipole_moment: 2.743
 S          -0.02748805567335   -0.03205725592639   -1.42253096747838
O          -0.12203966664565    0.20558176765280   -2.95043908008836
O          -0.65698907751761   -1.29706033037159   -1.09639285692947
O           1.38945102929537   -0.01437708379486   -1.07963785593776
O          -0.73288410735427    1.08194428482905   -0.76501797283173
O          -0.73382006105660    0.42166374805811    2.89547755530862
H          -1.68211186945393    0.47066739581457    3.02544231090286
O           2.57471769385841    1.34783894664528    0.84992996404800
H           2.31035284351740    0.98087024575446   -0.02102769429890
H           2.80553951733404    0.57396033293168    1.37751782963691
O           2.37016820873029   -1.58524964046374    0.82015855755783
H           2.02909390531401   -1.10079459518987    0.03652392025754
H           2.78733736033341   -2.37888299990973    0.48257534002710
O           0.19539305036404    2.11797264013038    1.27502501976366
H          -0.21621780620916    1.74355502193701    0.36782070880463
H          -0.18575736343798    1.48640709803453    2.00603672062797
H           1.20363840601576    1.91402469056959    1.19856520382846
O          -0.27551385251256   -1.70452476146724    1.50406040256277
H          -0.56210933427671   -0.44083416838153    2.40644083832444
H          -0.53421054095097   -1.61451469093104    0.56284935966258
H           0.69231658803448   -1.80937017321649    1.48079199317288
N          -2.68820940147729   -0.07622644580508   -2.63800200664196
H          -2.91704389791466    0.73473877533478   -2.07732901663050
H          -1.10594632886341    0.15947895367390   -3.09407503438945
H          -2.40332388941814   -0.81505369812913   -2.00116958948141
H          -3.51434335000670   -0.36975805781923   -3.14359364978795
