    26
        -50.45706875  Gyration_radius:  2.55768092056 Dipole_moment: 4.841
 S          -0.25269507098758    0.19098862841979    0.94669771434069
O          -1.45647174537533    1.01810582187667    0.48907995832967
O          -0.63593756922229   -0.49410424147868    2.17743912142032
O           0.05957464761040   -0.79587210675696   -0.10069321843290
O           0.89684069472479    1.07120119076424    1.15831481979213
O          -2.00935209053390    0.11446857352824   -3.25723156073969
H          -2.87322995807797    0.31355875522445   -3.62134353823181
O           2.81917289912022   -0.33521192612020    2.26723411348635
H           2.93902285384742    0.03136182233297    3.14533690383444
H           2.17709705618942    0.26671611027780    1.81476481468578
O           1.66629502896677    1.96084190261067   -1.21769306905705
H           1.45853281137486    1.57739345863003   -0.33888020070093
H           2.05738358786166    2.81965366457153   -1.04595594671468
O          -2.38960769010944   -1.27166578872074   -0.98099681630462
H          -2.83620625164656   -0.65397151541754   -0.39493105140184
H          -2.15687669835229   -0.51597875538992   -2.51688570808319
H          -1.44708801681989   -1.21878020746470   -0.71971860893459
O          -0.95324378164394    2.03803660172086   -1.73060146510894
H           0.02994836042849    2.01469393825130   -1.74273802817834
H          -1.26249392416466    1.36777640992982   -2.38526157512290
H          -1.26328893440880    1.49057846458825   -0.43933393694519
N           1.11139682710049   -2.26362534630967    1.71402731001530
H           0.30100469776853   -1.73589017046832    2.18275562885953
H           1.97854977648400   -1.73810916276016    1.99639153553318
H           1.14752853159574   -3.26351022919951    1.87897499823544
H           0.89414395853321   -1.98865589275669    0.72124782534860
