    26
        -50.45706877  Gyration_radius:  2.55772426622 Dipole_moment: 4.842
 S          -0.56415260785821   -0.82407857742504    0.00142155655426
O          -0.56420905564942   -0.86191883510945   -1.52871845848441
O          -0.55148920744710   -2.20567447153235    0.47266658098458
O           0.65432194984216   -0.12947302221287    0.44999908541127
O          -1.74790719222820   -0.10640978493541    0.47552781726919
O           2.30398204848896    1.51867941632748   -2.65518382444241
H           2.63069488426566    1.40119128589651   -3.54849802233838
O          -1.88124811074897   -0.36946472577947    3.08618545508662
H          -1.89653306356330   -0.17719642351901    2.11555037340801
H          -2.67104047883563   -0.88574386868885    3.25781482726448
O          -1.44406657775083    2.44605938960457   -0.17226663909516
H          -2.33573117424348    2.78110185830210   -0.28488003365523
H          -1.53976848565551    1.52670657756249    0.15659758216210
O          -0.35705793711493    1.46407051757164   -2.40484940477783
H           0.61517276115252    1.61118988275375   -2.48593632411648
H          -0.50752185744667    0.11549484585583   -1.93369543843271
H          -0.66160156255321    1.99511794192840   -1.63503512329582
O           2.31144200862772   -0.89600580723367   -1.46497027282781
H           1.81639286093585   -0.57927085554629   -0.68141758297232
H           1.66973935172746   -1.41099439970544   -1.96248581925931
H           2.45458339212308    0.66627136415678   -2.18820830485959
N           0.48799945228597   -1.43441887216652    2.64621011088910
H           0.10047207397835   -2.08022508230657    1.87955673455707
H           0.87085351162891   -0.68703870242563    2.01121625760310
H          -0.36204262044453   -1.03160920610966    3.11852992249112
H           1.16871563639691   -1.84636045528735    3.27486893489861
