    26
        -50.45706880  Gyration_radius:  2.55775296212 Dipole_moment: 4.842
 S           0.96621134442601   -0.20638094621949    0.14361395472154
O           1.35614679495400    1.20253850375921    0.08067996423130
O          -0.26632546229299   -0.41898808921787   -0.63348772679632
O           2.02577811444473   -1.07770393136068   -0.35558276225499
O           0.69585366705324   -0.60075427013725    1.59756597767046
O          -3.15630444746098   -1.09877186916227    1.86892868192864
H          -3.46975981517795   -1.61408191000554    2.61374272775448
O          -0.78016384222590    2.64815312895254    0.69183247363437
H          -0.00149892903031    2.14128785310565    0.37665081751795
H          -0.43213966824935    3.45123422321725    1.08416334130466
O           2.14055714483968    1.73314667714369   -2.36991793551443
H           1.82632523287775    1.64586209385539   -1.43558132484665
H           3.07627054874167    1.93413532573917   -2.30802578878708
O          -1.22333981854817   -2.52394862352442    0.65257990279606
H          -2.56538344621161   -1.68917078470034    1.34966995322337
H          -0.95841160607582   -1.78231469324296    0.07019633020299
H          -0.51937672565706   -2.58026749288909    1.30505992518378
O          -1.25930011079655    0.69383372575250    2.44719978844456
H          -0.11229253217306   -0.04534917191361    1.99892254740279
H          -1.27801379287925    1.45695436312893    1.82701787102962
H          -2.04022001981553    0.13113218346828    2.23052382148915
N           1.19615015125648   -0.70185626760312   -2.71564231452973
H           1.58126848320045    0.26211786466656   -2.88994426840617
H           0.28399293841487   -0.58146626856009   -2.20403131278364
H           1.14682945844040   -1.29489884892632   -3.53670513349497
H           1.76714631853757   -1.08444280538273   -1.88942954141800
