    26
        -50.46223548  Gyration_radius:  2.40035995375 Dipole_moment: 9.366
 S           0.03612395556964   -0.54385253806152   -1.77406653513426
O          -0.34307392784995   -1.52913880103048   -2.73596014973499
O           0.92404248738511    0.51457706410777   -2.23224140837509
O          -1.15338027349909    0.07714000140102   -1.12617089771329
O           0.79652313683092   -1.31280515931832   -0.63675694580784
O          -0.29700583556394    0.16022248063307    2.40108944627379
H          -0.46798341362658   -0.03456534465944    3.32315873880444
O           1.60661362608075    2.38288311715455   -0.64920625958807
H           2.20181195522237    2.96928687892447   -1.11776102596117
H           1.35977612275978    1.66260609794490   -1.31471458667809
O          -0.99266976945324   -3.35046701605752   -0.84263285012435
H          -0.88653357382104   -2.74836780826866   -1.60375269580480
H          -0.10973188789692   -3.68558127385764   -0.67301899651195
O           2.08754447187485    0.24154676559496    1.00625593374811
H           1.37045700647463    0.25054383763882    1.66186650855060
H           1.36724085742466   -0.72481937296796   -0.07587563855451
H           2.09039236527579    1.10116538853955    0.55465205270975
O          -1.72074300450246   -1.44569700826924    0.95666184726737
H          -1.72077016324168   -0.88804659591484    0.15435474692898
H          -1.47599991065640   -2.31670446134282    0.58874909843300
H          -0.79195316557140   -0.54650576810807    1.87795859705645
N          -0.78534035012003    1.99256194514447    0.47519140002704
H          -0.98824489149296    1.19641089707891   -0.27707339849526
H          -1.55107685682887    2.65457930665279    0.52088741811291
H          -0.65468699398199    1.48761531214625    1.37412207717347
H           0.09866803320796    2.43541206489609    0.16428352339796
