    26
        -50.46438279  Gyration_radius:  2.63075664414 Dipole_moment: 4.453
 S          -0.27055879750125   -0.32605414050824    0.47975756312556
O          -0.45365742593773   -0.04704024710404   -0.95507195926773
O           0.89050333123141    0.39364498175142    0.99823355944428
O          -1.52411925945963    0.19940320793947    1.22294856339849
O          -0.15198906452320   -1.75004111602164    0.72684950758439
O          -0.94910624840281    3.93081634696632    0.24654623379906
H          -1.38512120746887    4.70705264425281    0.60123183185454
O           2.69324885514652   -1.35261008083138    0.28086264630183
H           2.15070857598472   -0.58802241540831    0.59257911571240
H           2.44271525260984   -2.06907526866694    0.87008776527407
O          -0.25224460443125   -3.65938011898216   -1.05893710450610
H          -0.11349941918779   -4.49415982297797   -0.60915693830736
H          -0.37420741921128   -2.98400617659154   -0.34807738947509
O          -2.34830446097111    1.80585487781399   -0.55671233793369
H          -1.97108869721063    0.85486412425987    0.58600551489550
H          -1.89094225891271    2.65627710548215   -0.35578250057787
H          -1.75218393870345    1.31483580672131   -1.14220467430178
O          -0.09025302847947    2.47477371453674    2.31711663225167
H          -0.52946169945171    3.47494684137509    1.01350688984355
H          -0.85912633662976    2.02712914878915    2.68027116509806
H           0.41783971261225    1.76803390938319    1.86728265781135
N           1.28715882630883   -1.67625900392160   -1.93171962687202
H           0.80168921388458   -2.59642324026150   -1.83811053498982
H           2.00759155640308   -1.59550696066588   -1.15652538280056
H           1.67807493874837   -1.52676405610627   -2.85524083920869
H           0.54633361287855   -0.94229006165848   -1.67574034945867
