    26
        -50.46438281  Gyration_radius:  2.63112342493 Dipole_moment: 4.457
 S           0.13329331779852   -0.32922667821789   -0.53132460866687
O          -0.47069013000855    0.05076613345995   -1.90632921860803
O           1.23225764675127    0.59333800578310   -0.25577006576022
O          -0.92977547728921   -0.18322749563577    0.47794800831637
O           0.60847719240183   -1.69761960476130   -0.59962456846255
O          -1.21762406899038    3.75242371180827   -0.92717204015212
H          -1.46544526321043    4.47608060356192   -1.50458950534348
O           2.47603705181360   -0.90438044676188    1.48334679799768
H           2.75974471177053   -1.60656627619168    0.89197154180745
H           2.12091270460765   -0.21118177850888    0.87554863093176
O          -0.24457857130998   -3.72332845882138    0.81898086361550
H           0.27706628580357   -4.49163286067701    0.58235104814287
H          -0.01663112611223   -3.02528402079861    0.15776489054656
O          -2.45211612164232    1.39126929563011   -1.06715477635916
H          -2.11066617358111    2.31229386824538   -0.97812089576209
H          -1.31059830755603    0.58741294793854   -1.70226524923280
H          -2.26852326055525    0.95576703725131   -0.22108174625096
O           0.94426607621538    2.58618197769873   -1.98151144657824
H          -0.35136003210805    3.41842480752584   -1.25902568398903
H           1.17685124153910    1.93557388135012   -1.28679994908748
H           0.64074065993876    2.05302483266214   -2.72114093811192
N           0.08827633077908   -1.59608061538851    2.37694945673322
H          -0.19774621446942   -1.45594835179278    3.33955411353411
H           1.10655674438051   -1.35123899921998    2.20537906573273
H          -0.07940930637876   -2.57030024953678    2.03900055277322
H          -0.44931591672565   -0.96654129354364    1.69311571348834
