    26
        -50.46438284  Gyration_radius:  2.63081359811 Dipole_moment: 4.457
 S          -0.15904486114473    0.36962242472402    0.49735623382541
O           0.30649954527123    1.71967316815531    0.74930871399242
O          -1.26290523796052    0.36673929243666   -0.45988184794892
O           0.93742366332169   -0.49334216335848    0.02494414785819
O          -0.68404882303327   -0.22593523718724    1.82752567791570
O          -1.88340916819807   -3.57894871706301    0.23720772181876
H          -2.43838852743865   -4.25359558412967    0.63131072518516
O          -0.30784236201981    2.20282146065742   -2.05109397011201
H          -0.79205878929735    1.48428071990353   -1.57645052691418
H          -0.37168646118587    2.95547358485920   -1.45714069246617
O           2.74801067161430    2.61247830297144    0.45508817933710
H           2.74882806358209    3.54795021179022    0.66323241814611
H           1.86268226722415    2.27258009068920    0.73257831074155
O           0.21607189068593   -2.57903946047769    1.54524443115249
H          -0.35982518096355   -1.19009166075056    1.84795264610471
H          -0.49638952021892   -3.06229616792546    1.06394312186630
H           0.77662351972260   -2.18128740071602    0.86197110039338
O          -3.10779324307520   -1.22800627185382    0.58192820219154
H          -2.52826706367699   -0.62566581129303    0.07072104304289
H          -2.40653167486071   -2.74351019882242    0.25905381656972
H          -2.97165969941329   -0.97508835168879    1.49896965124293
N           2.06597899886087    1.12081689338763   -1.63614850814851
H           2.57596207578528    1.77088299711035   -0.99690343582079
H           1.69750043076180    0.33689114756597   -1.00155780603830
H           1.18764869872555    1.60733803869582   -1.97982185813915
H           2.64662078728553    0.76925872330253   -2.38933749586414
