    26
        -50.46577055  Gyration_radius:  2.40751298479 Dipole_moment: 3.802
 S           0.68501044442402    1.53353983927732   -0.20040071112249
O           1.00866253490886    0.17974421112699    0.56546032185257
O          -0.17487570819677    1.12544843977652   -1.33156362382054
O          -0.02254412387383    2.38423632484727    0.72448963952026
O           1.96933176147861    2.01697451928021   -0.63699871984608
O          -0.81882514781225   -1.16364954530795    2.68155981119572
H           0.07099076344038   -0.85444163358028    2.86495090314618
O           3.19703583894850   -0.17177123864243   -1.24752275175132
H           2.83188190491608    0.73911183366285   -1.07523932263464
H           3.48395893434527   -0.48514038283716   -0.38691794213158
O          -2.49273542549854    0.01116346599748   -0.57415747801011
H          -1.81055351207441    0.56809370147184   -0.99381659271019
H          -2.63285806434438    0.40872544658221    0.30023537662698
O          -1.99046643111123    1.17857302234072    1.87265792715695
H          -2.44619975554467    1.82215300599873    2.41705902244268
H          -1.34390874656300   -0.36036507102393    2.50335789491644
H          -1.23081341695300    1.66685035394726    1.45259420921545
O          -0.68168067791910   -1.76330741989889    0.07735189057248
H          -0.81878121712620   -1.90488074368492    1.03528270243777
H          -1.48025732836151   -1.24855842588373   -0.21861423852204
H           0.31149336066043   -0.51203618835094    0.40549576221647
N           0.87919376564762   -1.06978631147385   -2.07362169375647
H           0.38497941881890   -0.11502359496935   -1.91900114593442
H           1.89055060071698   -0.87364698017981   -1.79452245500730
H           0.43143767030409   -1.72208611047390   -1.41521741427110
H           0.79997257676022   -1.38992053800268   -3.03290138178439
