    26
        -50.46125099  Gyration_radius:  2.43535955124 Dipole_moment: 6.923
 S           0.99317799035022   -1.31274721443820    1.12595670737690
O           1.90131147228159   -1.40865740930783   -0.14738885187982
O           1.45036425894442   -2.24428156857667    2.09566411363328
O           1.05321083949113    0.09358136012535    1.55978671369600
O          -0.38919671418508   -1.57938262879479    0.64579255785150
O          -0.06541560842467    1.94158363488933   -1.43686732854543
H          -0.11775864948090    2.84942001547791   -1.73786492530242
O          -0.79820556294389    1.44323968820723    2.82227537726945
H           0.02350086511714    1.01762130971899    2.47937604626256
H          -0.99676842654681    0.99764844669209    3.64714873265152
O          -1.67447864481806   -2.19159985235085   -1.58235109639015
H          -1.63815603957755   -3.11942179776776   -1.81908183156359
H          -1.26643929850055   -2.12078848300041   -0.69395517247464
O           2.21005233127671    1.49969447312053   -0.28276073073728
H           2.75454818981692    0.85316308468185   -0.73962751669952
H           0.83730234387055    1.84248095222569   -1.00661679720638
H           1.85638376236088    1.02204762625008    0.50870016476826
O           0.48787714391645   -0.69174720089328   -2.22604343796601
H           0.22554008095730    0.23769324920641   -2.16932678733044
H           1.36306834504787   -1.15340067757685   -0.94315110455124
H          -0.33576623971271   -1.21676205746419   -2.17784930266857
N          -1.60279433658272    0.66434231103735    0.40502372841148
H          -1.50319443571995    1.10786446186747    1.34890997591782
H          -2.57249398679837    0.53420610056138    0.13659419139746
H          -1.09129759845669    1.23161957679355   -0.30455753742918
H          -1.10437206168298   -0.29741740068444    0.49221408150857
