    26
        -50.46125100  Gyration_radius:  2.43537299183 Dipole_moment: 6.923
 S          -1.06575362060550    1.60430770061319   -0.51733548917748
O          -1.84319797333441    2.60864386881246   -1.15297811951999
O           0.36502227484776    1.63306185070409   -0.86603640115242
O          -1.13384778969018    1.80683389380554    1.03499563396718
O          -1.56211148184309    0.22276808316660   -0.75718728260777
O           1.79278779906484   -1.04845493049142    1.23555152419523
H           2.65725071995653   -1.38260817489510    1.47748938098262
O          -2.52492523246590   -1.84267529048214    0.58383643053820
H          -2.32690679706515   -1.08152129444689   -0.00113643541836
H          -3.45418010516340   -1.77257952039487    0.80703973514837
O           1.53551676498495    0.40493885218446   -2.85705672084874
H           1.13357181346684    0.69393584394602   -3.67764359973003
H           1.20404698380038    1.02442297549927   -2.16395968225415
O          -0.79058633346815   -0.51460610117742    2.18652321132787
H           0.09415143497826   -0.86573848296248    2.01358413919028
H          -1.02104226554784    0.92371206940871    1.47717056359162
H          -1.42094284686421   -1.12093305073203    1.74909355896486
O           1.76937489415415    1.53992684288494    1.30864284135858
H           1.31096451801644    1.68361500562051    0.44327572073049
H           1.17195322416984    1.90124984828065    1.96872763320963
H           1.85646350641395   -0.04701404357201    1.28908274518033
N           0.46171515962761   -1.30611016447168   -1.12030396640119
H          -0.41018398791944   -0.67730217749614   -0.96092442392678
H           0.98828087737055   -0.84666304403546   -1.90083376893261
H           1.03736921213862   -1.28891739829223   -0.25129582715199
H           0.17520928097533   -2.25229313147671   -1.34832139126394
