    26
        -50.46577058  Gyration_radius:  2.40738393589 Dipole_moment: 3.804
 S          -1.28808061548098    0.64030394390900   -0.89005154800315
O          -0.92728238625238   -0.70185665714258   -0.12047418275597
O          -2.03255765263924    0.20580916812183   -2.04363291410709
O          -2.00509880604407    1.48027215334245    0.03734358606686
O           0.02021326972490    1.22439893747994   -1.25408751618932
O          -0.20866265004460   -0.90783654449482    2.88872928565828
H          -0.96306104762492   -1.34585841631233    2.48882202548896
O           1.54552522326490    1.84823669664554    0.86084120350856
H           1.04371361266442    1.87105901985899    0.02458405004137
H           0.88117836142375    2.00101554004634    1.55189787920951
O          -0.82687799923597   -1.98882939427858   -2.67653214641036
H          -1.21045685398647   -2.61239807968172   -2.05590623851292
H          -1.35870813766818   -1.15480793372829   -2.55730755382175
O          -0.79918688253721    1.70415999590290    2.30461355956206
H          -1.29261245619255    1.62745897861530    1.44288528755980
H          -0.40181266654800    0.04747449308173    2.83510120711825
H          -1.29904091582140    2.32379732382170    2.83794414331592
O           1.50986538710846   -0.76943843808615    0.84234750627995
H          -0.01899997934126   -0.66435847725427    0.28428094588031
H           1.71391205980388    0.20235075015873    0.90667790789043
H           1.16941916329570   -1.01051909632854    1.72693246111044
N           1.38721470505622   -0.82338978295233   -1.90121927945419
H           0.89920113312289    0.13295092107098   -1.73721278958934
H           0.59813978373622   -1.44648986395884   -2.25944840814568
H           2.15252126835720   -0.75315798138604   -2.56329645050369
H           1.71153508186635   -1.13034725645833   -0.97383203118767
