    26
        -50.45572189  Gyration_radius:  2.4788752181 Dipole_moment: 3.361
 S          -0.19786033631933   -0.60512549086849   -1.00912081843424
O          -0.52468682607530   -1.48610415009660    0.09268278471229
O           0.85352091247651   -1.30165133319154   -1.89974317544714
O          -1.35885154944558   -0.25116927874042   -1.80889805611045
O           0.44360196733578    0.63251058413276   -0.49120239047503
O          -0.28077686508152    0.33770277183257    3.30156252624418
H          -0.94881770836996   -0.11715634524872    3.81743755633062
O           2.74210997435078    0.23774846778945    0.82572308305749
H           2.93268689894289    1.07797581062370    1.24687083005946
H           1.97448735094611    0.39072949814393    0.24017921150581
O          -2.89377489106179   -0.18525853745116    0.31499887617077
H          -2.52303350758135   -1.02503855886495    0.61785796608171
H          -2.57988577165680   -0.13823698801235   -0.61674909794295
O          -1.16743006369605    1.43572099818854    1.22852259406472
H          -0.80596611997366    1.02769704962339    2.13561116951953
H          -0.44357328474630    1.20472919766945    0.50528836004239
H          -1.98010889609212    0.86473254585172    0.93467908694886
O           1.13479887472327   -1.47359027582073    2.18312875625114
H           0.55582265849596   -1.66251005764324    1.41746881496186
H           1.90725042705467   -1.01336670237840    1.80093861391234
H           0.33255859471937   -0.38568977691606    2.92934598922862
N           0.60130198350155    0.57296492628892   -3.67420842888042
H           0.94350384519015   -0.68424530410168   -2.68798447603648
H          -0.35125170565147    0.58959071081845   -3.31776657907674
H           1.05731740274745    1.43383626677854   -3.40229196745820
H           0.57705663526831    0.52320398159640   -4.68433121923471
