    26
        -50.45572181  Gyration_radius:  2.47906777132 Dipole_moment: 3.361
 S           0.23728446778506   -1.16479314196615   -0.10049027353994
O           0.29714191854354    0.11324875872338   -0.85845045500859
O          -0.77716230404293   -2.02719914683551   -0.68358777541686
O           1.62576853118758   -1.82401384586591   -0.24638551226710
O           0.00165189032781   -0.89257589528629    1.30210462724658
O          -1.07190679023613    2.61841468495828    1.75840677927684
H          -1.64032274764553    2.53424678889427    2.52595492348724
O           2.25822493306323    1.77419879961564   -0.10483526373895
H           1.62710008195319    1.11794891999498   -0.46061253787490
H           2.05904270508373    2.60484666705426   -0.54077326112261
O          -2.65745341905834   -0.92202692031168    0.77057252764110
H          -2.18781854863959   -1.50021921422098    0.12706807870052
H          -2.09804524951792   -0.98687138801783    1.55625832960976
O           1.07543087482682    1.33963640516839    2.29663365059698
H          -0.18628912119596    2.18277681096403    2.01111717824551
H           0.77093546684582    0.43724341631222    2.07280377995673
H           1.70904345023938    1.56904606970677    1.58920399269071
O          -1.81627369725343    1.26071504134966   -0.21451389464862
H          -0.92095319644097    0.85056560882574   -0.57618213902664
H          -2.30605021431732    0.43784254609120    0.18012313001627
H          -1.53937242584144    1.88249369609675    0.59578569770195
N           1.13733698474832   -2.31668702490943   -2.74540766006989
H           1.34598378027948   -3.13208603969548   -3.30668406569869
H           0.18260744536329   -2.38386699013228   -2.40090521558562
H           1.66666414667839   -2.07910125391479   -1.21794687990412
H           1.20743102727367   -1.49378334257576   -3.32925774126343
