    26
        -50.45572193  Gyration_radius:  2.4788460524 Dipole_moment: 3.362
 S          -0.42408635077039   -0.16406068279869   -1.10367259756131
O           0.84768679677475   -0.04309529893108   -0.34247008556289
O          -0.56986446472028   -1.52575647354616   -1.59081298026174
O          -1.53417747117813    0.25547121839868   -0.27384410134416
O          -0.31074642858755    0.80605506358565   -2.29944001421205
O          -0.46688307051925    0.49555483255830    3.26019263723089
H          -1.28410034875949    0.27393738033861    3.71004842914840
O           1.44366169090780    2.44132473314925    0.46079802238489
H           1.28922533524856    1.56288144826472    0.06077410781021
H           2.16915274203140    2.33344207349495    1.07861583916087
O          -1.68653200519346   -2.28780101411626    0.65498923211711
H          -2.25967129871398   -1.50944817359817    0.64235358014892
H          -1.31573895285799   -2.29330295973617   -0.25681084237619
O          -1.06376349101850    2.22061446595063    1.47028462357463
H          -1.37638645865215    1.60933775856532    0.77337608136173
H          -0.69496510119990    1.24520481114430    2.60899166039950
H          -0.21321076844799    2.56413980488410    1.13411782812049
O           0.38683352361115   -1.31400719982368    1.74810762767352
H           0.69404376604008   -0.78862644111258    0.89361191335591
H           0.06060348464001   -0.57774704061588    2.43468137099892
H          -0.45268788232166   -1.82333239840034    1.41848853463660
N           1.46507583505282   -0.73737972901809   -3.39064242937850
H           0.39981862096606    0.38986431768913   -2.87608594045805
H           2.37038578049583   -0.66856022578218   -2.94496261726329
H           0.92827682559110   -1.45800264399309   -2.91401148616558
H           1.59804969154127   -1.00670761654229   -4.35667836354174
