    26
        -50.45499295  Gyration_radius:  2.48779500756 Dipole_moment: 2.365
 S           0.97504480367679   -0.23672576169435   -0.09798509082250
O           0.43940299694900   -0.77282296673857    1.16253809110341
O           2.06348219949130    0.79766667511729    0.31928795399718
O           1.56890324937629   -1.26812155428415   -0.92291425971455
O          -0.06490132889503    0.49038840366863   -0.82316753453439
O          -3.20162121730964   -0.45005772471886    1.35111776844747
H          -3.78177115094255   -0.69731803294273    2.07396431594043
O          -0.19483790872258    2.69604402975416    0.66505883117776
H           0.72879456639410    2.73575716854274    0.92545248450917
H          -0.24157296621237    1.98379005754107   -0.00282267881962
O          -0.92448559313323   -1.81128069820124   -1.76413905689638
H           0.02468996791060   -2.02206268732755   -1.71324767728490
H          -0.91933344658331   -0.83632485547345   -1.68919396585565
O          -1.28383784178030    0.92591366891341    2.37362066894110
H          -2.52252785508143    0.19185173299538    1.74101998811423
H          -0.56042534244315    0.31756204544122    2.13518681377959
H          -1.07725823070406    1.74461141041746    1.87677648163773
O          -1.55223353666851   -2.19923959304542    0.65087842812395
H          -1.44153434828223   -2.17000578544489   -0.38152145773788
H          -0.69078973525113   -1.71311131439370    0.96729881227155
H          -2.32580675166656   -1.52178993832262    0.91079527457622
N           3.07518027105052    0.81739966950399   -2.06716125481742
H           4.05033827897315    0.81012236719921   -2.33603973296031
H           2.71820646686080   -0.13555394956822   -2.08350442512596
H           2.58125366487370    0.95762142992891   -0.52981902882778
H           2.55764078811809    1.36568619315755   -2.74147972922063
