    26
        -50.45496830  Gyration_radius:  2.51178944254 Dipole_moment: 4.594
 S          -0.62655847060403   -0.78784154048309   -0.89158660778646
O          -1.31928788678676   -1.38987257138992   -2.13990839383946
O          -0.85544622670259   -1.64523775713226    0.24972457924878
O           0.78605303961407   -0.64814887591088   -1.22676673480193
O          -1.23235425549462    0.54235141321004   -0.67701586985616
O           0.74634132661732    1.70268298566414    2.34579701311287
H           0.06598902939697    1.89586958596934    2.99268912249939
O           2.12887996346421    1.55794136061597   -1.44809911511194
H           2.16542579585983    1.82308661584085   -2.36874666900606
H           1.68578891063718    0.67038503276155   -1.43139601390727
O           2.87785540834997   -1.17373063985876    0.41419149978230
H           2.16716503228631   -1.18359086847766   -0.25142969902909
H           3.38106633934774   -0.37299650785290    0.24958694123157
O           0.20330169691722    2.41945387746901    0.00220193809934
H           0.44112566776444    2.18504372661654    0.99588465097784
H           1.03964102818960    2.23691439500131   -0.54528608371443
H          -0.47254086308347    1.63855092642732   -0.30504484059262
O           0.83174319803762   -0.85348593210840    2.16564809421686
H           0.15109199079889   -1.20239286075746    1.55578383657978
H           1.68185105194573   -1.08572816683705    1.74300373808093
H           0.81287761594798    0.69208538182346    2.30388795745671
N          -3.49126890634588   -1.42368639499108   -0.71712702957422
H          -4.33022083960556   -1.98396116337551   -0.63726952363987
H          -2.25788516587727   -1.48550322419621   -1.81452899797931
H          -3.73492366476539   -0.44983215316772   -0.59001058608148
H          -2.84571083589331   -1.67835664481108    0.02581679358566
