    26
        -50.46485778  Gyration_radius:  2.56552248852 Dipole_moment: 4.114
 S          -0.24984277882003    0.87271015819172    0.18561608977261
O           0.97370785549897    0.99715874377110   -0.60002502687410
O          -0.21214400166826    1.72099448273156    1.37030975019723
O          -1.43342146321433    1.35048509163096   -0.69463670936953
O          -0.48955697406942   -0.52737268933341    0.54839876073949
O          -0.62252439735897   -1.10982443191055   -3.57559029607104
H          -0.96101701597939   -1.14918841281423   -4.47126118426444
O           2.46327495528321   -0.65020186499143    0.77339790753535
H           2.03983590874506   -0.00245168483680    0.16039371092498
H           2.00813105350685   -1.47912513190281    0.60310815517179
O          -0.62154946623311   -1.34304878580322    3.04645926065186
H          -1.50212421687366   -1.13673760348572    3.36376386844624
H          -0.62997234464836   -1.14061837110686    2.08040164615133
O          -2.21847840778576   -0.94321408653274   -1.44458198998056
H          -1.69842806434258   -1.11970065646352   -2.26310667277796
H          -1.66471064924538   -1.24894867025409   -0.70920198331978
H          -1.86862782724059    0.50539729946778   -1.05209616799011
O           0.18993100810048    1.39226099655135   -3.10208146986350
H          -0.58530813897058    1.92732360425116   -2.91251180054326
H           0.63017859963791    1.27685820327759   -2.23455999698583
H          -0.22439741376434   -0.21390233148138   -3.46976178768258
N           1.36214644228695    0.41302311845008    2.92018243660003
H           1.89815973881384    0.86074410135356    3.65490017531278
H           0.74641012257837    1.10114942271645    2.36827153865021
H           1.97308225122910   -0.04069446937753    2.18017109542669
H           0.69724523458401   -0.31307602210873    3.27404068021786
