    26
        -50.45496827  Gyration_radius:  2.51169586099 Dipole_moment: 4.596
 S           0.22145596016487   -0.47599652702175   -1.23804790358720
O          -1.06254317385134   -1.11643559892923   -1.06129336159036
O           0.09360455836164    0.99185683898491   -1.13088863496401
O           1.23453934201027   -0.96101796850974   -0.30756015809844
O           0.75493764062050   -0.76773147123082   -2.66320616937669
O          -1.12634937002425    1.29963136591526    2.44927774808901
H          -1.94801763779846    1.78504674276081    2.36068719825877
O           2.66253048079568    0.45662740971882    1.32652623027328
H           2.19606845993717   -0.15754985180819    0.70249304499233
H           3.51266740262523    0.65034203529819    0.92799903071332
O           0.77178452394862   -2.27093675527980    2.01899848446152
H           0.96892699611423   -1.99976273806477    1.10476571242512
H           1.36745847758928   -1.76594424646597    2.57718857649220
O           0.73428334421099    2.10182470428707    0.96761559474070
H           0.44927844243283    1.67263445445760    0.02130866149855
H          -0.03255437263651    1.82118305690988    1.62498170105026
H           1.55383526188794    1.56344566610790    1.23393879326050
O          -1.60768229494764   -1.05440014811421    1.55467619577015
H          -1.53064563405496   -1.10079386114205    0.58057386954426
H          -0.89809246970088   -1.63976151321035    1.88482012187884
H          -1.32466360297863    0.35595714367816    2.13676876635167
N          -1.50657436820967    0.17346328383447   -3.52512761948116
H          -1.87014136630273   -0.30718861825784   -2.70642543493445
H          -0.00390857572919   -0.44428528085607   -3.22489818277502
H          -2.13535356378919    0.02794609098312   -4.30462499535426
H          -1.47484446064728    1.16184577597887   -3.31054726958708
