    26
        -50.45899773  Gyration_radius:  2.47173602325 Dipole_moment: 5.014
 S           0.15019571319099   -0.58408802854984   -0.87431101279336
O           0.83487598717000    0.22091750169332   -2.03639973852808
O          -0.45769912552518   -1.77356065552888   -1.40417901529066
O           1.21602541918941   -0.81376883542267    0.08950513371437
O          -0.85923933375777    0.34113379729318   -0.31316151963261
O           0.27452174387711    0.99336969848157    3.28303771159786
H           1.11146991179409    1.08946812066094    3.74159343487809
O           2.47156156002826    1.45469670411573    0.03186329951648
H           2.18339390310212    0.50999864812744    0.07969167792341
H           2.52773590799427    1.64504846955396   -0.90827758876529
O          -1.92594291996074   -1.86580937926065    0.92014388164578
H          -1.98764262320788   -0.93160759230829    0.68412574879908
H          -1.52221083912403   -2.27171816673976    0.14072616440722
O           0.22423985199231    2.10928326482291    1.03142072004202
H           1.18181724086740    2.00635188793418    0.67852306867761
H          -0.32027420326994    1.40534608607736    0.45099839237691
H           0.21844494034231    1.70917633529798    2.00532815424756
O           0.23375093211501   -1.46499640778797    2.50924299931824
H           0.19310063412818    0.01289088657654    3.05538659852628
H          -0.64664196206259   -1.74923129949039    2.19403657850267
H           0.75608735329528   -1.36988535826460    1.69235453299549
N          -1.26688718922980   -0.10544551834103   -3.52611010274055
H          -2.04059414537027    0.49551644944948   -3.27368835256329
H          -1.34402185296917   -0.96485479956184   -2.98643524835372
H          -1.34037411808568   -0.32844387644291   -4.51034787021665
H           0.13430723349825    0.23021206755729   -2.75506764828928
