    26
        -50.45899780  Gyration_radius:  2.47159828106 Dipole_moment: 5.015
 S           0.35155417525395   -0.69586446294808   -0.72056066209191
O          -0.19883117982118   -1.87569910504583   -1.32896408312418
O           1.47936880306183   -0.10500758465832   -1.64049032935290
O          -0.65585423341624    0.38274865834427   -0.61246436611682
O           1.00147858021050   -0.91067410305116    0.56362478050778
O          -0.69212357277235    1.34655169987768    3.08989858975696
H          -0.04628632691437    1.41420460416569    3.79591797576263
O           2.49246714931870    1.20267543915135    0.75450535865248
H           2.08355686742855    0.30271446823736    0.77726625850048
H           2.87818006406045    1.27313419845794   -0.12270630785905
O          -2.34971518229462   -1.54744091769043    0.35407227097738
H          -2.20622310258986   -0.64670413567691    0.03714018015208
H          -1.76905272240165   -2.08104152939474   -0.20569339014240
O           0.14794986232937    2.18575072319656    0.87465965845213
H          -0.23035506102366    1.90709664024656    1.81697828434522
H           1.14611979672228    1.94929128377066    0.87789491688594
H          -0.26301433312402    1.47365798313335    0.20179022482670
O          -0.80002827025319   -1.17065635719144    2.54644860845506
H          -0.82301073220791    0.35850988701317    2.92667081461076
H          -1.55704994737890   -1.40379016121964    1.97397500934076
H          -0.03015837841020   -1.22476762428871    1.95186990198829
N          -0.03905182199465   -0.40273079173697   -3.72557948902648
H          -0.76675722643738    0.29603275704867   -3.80107052460688
H           0.18664749309152   -0.73401794990085   -4.65464606140515
H           1.06168891612558   -0.11415278214602   -2.55321417672222
H          -0.40149960656312   -1.17982082770014   -3.17732344276963
