    26
        -50.45899787  Gyration_radius:  2.47150586389 Dipole_moment: 5.013
 S          -0.01110036991766    0.09747626508664   -1.05745736756682
O          -1.04651221856499    0.10533392307621   -2.05390721866338
O          -0.24911397914085   -0.94230216668056   -0.03168890308159
O           1.35711734352441   -0.29545456150159   -1.72131210634470
O           0.24458586702578    1.38251904396422   -0.42425482909091
O          -0.19618280864551    0.92199458355221    3.30937587789303
H           0.28480702740898    1.66326556909895    3.68264720784268
O           2.62404300098168    1.02375861967082    0.54281219668392
H           1.78348734991615    1.35527572821161    0.14128406407996
H           3.08759313231887    0.59477259838277   -0.18128471770569
O          -2.83515258684729   -0.02864275037190    0.03205242920915
H          -2.17390958392856   -0.68236036116164    0.29276885651724
H          -2.58938829439344    0.19396737559099   -0.87640520912751
O          -1.62305599216336    1.95454278880286    1.42762423870722
H          -2.30373585346545    1.34153842879296    1.08689826264560
H          -0.83514143753792    1.31701527687033    2.63430881647041
H          -0.94837278523469    1.97081252640102    0.72497984563033
O           1.23345175505621   -0.60584917349444    1.91699876891675
H           0.65170848323598   -0.01097172857766    2.56248269868367
H           0.58162267110703   -0.84059798319392    1.11156031566878
H           1.92042964377508    0.01928036401931    1.48166425803641
N           0.20081252659316   -2.23828522212690   -2.99809050557168
H           0.31552202983910   -2.55029814403138   -3.95377537492622
H           0.00234222221348   -3.04329939645593   -2.41835925602775
H           1.12151555670827   -1.09480364310121   -2.28083701552375
H          -0.59737268985731   -1.60868798082844   -2.95008534335483
