    26
        -50.45899790  Gyration_radius:  2.47144941577 Dipole_moment: 5.010
 S          -0.02531241285252    0.38197209351335   -0.99103856924731
O          -0.20852530725259   -0.90774820114259   -0.28873993450641
O          -1.06940227434985    0.61586793066088   -1.95028191670847
O           0.18079356124696    1.45545067986578   -0.03039627968895
O           1.35234551924335    0.24555213435128   -1.73321206037644
O          -0.20457844143890   -0.02556316515195    3.43474659117997
H           0.24733294610364    0.60590149365500    3.99793229569982
O           2.58256793210924    0.95151608268398    0.80832052261848
H           3.05714949992625    0.75699899338127   -0.00420336274836
H           1.72482831950606    1.34279449637748    0.51028050365892
O          -2.83041687481234   -0.16147594236330    0.01568305837607
H          -2.13742157644441   -0.83003746581894    0.08845464493372
H          -2.60536302543198    0.31186930985255   -0.79701069789998
O          -1.69209618382106    1.41765942317891    1.90257832906147
H          -0.86619476335238    0.51034937872830    2.89152759595704
H          -1.02552666305642    1.65474843883499    1.23277792043265
H          -2.34875242093962    0.89115153142473    1.40580882093017
O           1.27657789530119   -1.05055288074069    1.68188179725071
H           0.67580831467077   -0.68072137084858    2.46367766025683
H           0.62795100258534   -1.08536882457107    0.84136962667522
H           1.93180406912310   -0.30060388132283    1.43543762774870
N           0.26839516038399   -1.32524463613544   -3.49382441783155
H           0.11002715140414   -2.26542378065710   -3.15543541813345
H          -0.55547685581040   -0.76793866128378   -3.27835564203524
H           1.14616888627775   -0.38083104123368   -2.48992749699416
H           0.38731657167414   -1.36032214522402   -4.49805118860065
