    26
        -50.46050470  Gyration_radius:  2.59234411281 Dipole_moment: 4.571
 S           1.22133824652482    0.30869008131293   -0.15328560972203
O           2.41614699992853    1.15755835871833   -0.05585822993723
O           0.55562109870857    0.45988962442650    1.25029219318476
O           0.27335097019787    0.85478602571135   -1.12807757456293
O           1.52065371465109   -1.07880563602727   -0.40017209910581
O          -1.16556869879152   -3.51375402504689    1.11128491262719
H          -2.00175586159874   -3.93424227850959    0.90289204932030
O          -0.38697561572515    3.33192111671963   -0.76475998332510
H          -0.24076745174238    3.77197149893506   -1.60380885340569
H          -0.24506571985294    2.36331117048876   -0.94353242514216
O          -1.75494865268603   -0.86934397843707   -1.42764869594052
H          -1.05821201282457   -0.18712425695791   -1.47697481982114
H          -1.30832400967563   -1.70563100252217   -1.61628318612726
O          -1.58862828877733   -0.84682636128660    1.22163351602669
H          -1.39647744278227   -1.79481099329813    1.38661824392833
H          -0.32067140760958   -0.09084040303799    1.27379256037261
H          -1.84052316550564   -0.80370294987138    0.26639826864743
O           0.05308414260950   -3.03314156366373   -1.27392573026459
H           0.62728508196650   -2.29414686759097   -0.94901057741235
H           0.64748940925090   -3.65125806314347   -1.70170974345844
H          -0.67856007816783   -3.43620254158386    0.26615755282604
N           1.34104932093304    3.04326867557360    1.19381407465028
H           1.93728066269856    2.25837263363347    0.64748306657435
H           0.85078930825508    2.52092455585246    1.91935250995532
H           1.90544534914419    3.79360115423191    1.57754785526794
H           0.63694409079951    3.37553601539994    0.47778072488788
