    26
        -50.45929203  Gyration_radius:  2.49768130672 Dipole_moment: 7.211
 S          -0.43464059362348    0.21745076356743   -0.95695025498615
O           0.57402184467993    1.20222586425711   -1.28788594199066
O          -0.38887047546015   -0.01265204700404    0.59448767155744
O          -1.80223843456676    0.66167786710903   -1.20163383735140
O          -0.17934450745431   -1.09068837721749   -1.56855042810270
O           2.59492414484039    2.05372840780420    1.65089758499493
H           3.21444832161338    2.36112896864056    0.98648353313126
O           2.53563311383677   -0.60143576252221   -1.36242906470195
H           1.91714810211500   -1.27729288242996   -1.66303319855241
H           2.03496293698926    0.22549696838040   -1.48511373908334
O          -2.19707004731227   -1.84480263294552    1.44643377671503
H          -1.48434113283690   -1.20433294233194    1.24844457472535
H          -2.57047076623966   -1.58482924622494    2.28979613738190
O           1.96192065758147   -0.48819731515809    1.22664037171324
H           0.61023929955539   -0.24403900009155    0.90276234092136
H           2.36189398308847   -0.63872277600478    0.33583253813336
H           2.28096869081573    0.40353275305624    1.51515134144661
O           0.21363572841894    2.90115533888372    0.72586602238624
H           0.33118189307808    2.41933792136494   -0.11656362709680
H          -0.53228546902431    2.48027254861689    1.15771860813859
H           1.73184883457235    2.46548562991980    1.42262435180993
N          -2.60772460411499   -1.72642288707695   -1.18411105633987
H          -2.71202432245649   -2.00149146046621   -0.18800090414403
H          -1.58403922782912   -1.83932916089399   -1.45283670881111
H          -3.26207648405991   -2.18658843635578   -1.80660385613722
H          -2.60770147621086   -0.65066811487909   -1.22942624575647
