    26
        -50.46050470  Gyration_radius:  2.59236305486 Dipole_moment: 4.570
 S          -0.25486387198217   -0.06624747623844   -1.24164143433202
O          -0.77937504956779   -0.66407310083531   -2.47654391648557
O          -0.01028598113474    1.34962279855865   -1.34738498141839
O          -1.39117880329196   -0.32628446187284   -0.20362027278611
O           0.92187794615113   -0.79950611058897   -0.76762888749691
O          -0.43364695765047    3.23217008972771    2.07460770963795
H           0.05367026830792    3.47864834265469    2.86280817749016
O           1.96030557207307    0.49149187993060    1.33738646837751
H           1.74125049772296   -0.04213425504066    0.54962148650987
H           2.06322094488878    1.39638247821727    1.01345304941313
O           0.59861310229593   -3.35310661746942   -0.48631821473493
H           1.31620494751712   -3.76676757933621   -0.96902402445674
H           0.79583030637826   -2.37783944450860   -0.49950822528350
O           1.41520506740812    2.96902508063551    0.09560231376847
H           1.68109257027150    3.68677018807990   -0.48101863530108
H           0.21136037767769    3.24028964853497    1.33879746815867
H           0.87547206566260    2.36033632307508   -0.46964390117403
O          -0.60464030068289    0.53558753982917    2.02003089821002
H          -0.75047575097925    1.50483412987472    2.06548257890070
H          -1.10187728448354    0.04279913256010    0.71932289477508
H           0.37574001589564    0.43195280783563    1.94324818443512
N          -1.77110545007991   -2.70717651564642   -1.42025978915157
H          -0.89907580174046   -3.17970379455566   -1.05249364993702
H          -1.37945936431426   -1.82811717295469   -2.00669946849079
H          -2.36502451865560   -3.32785206761900   -1.95956035560503
H          -2.26883451766233   -2.28110184287096   -0.63901546303655
