    26
        -50.45929202  Gyration_radius:  2.49751616208 Dipole_moment: 7.214
 S           1.00306742223094   -0.37299629634891    0.07549871660950
O          -0.54622189682822   -0.42237607753254   -0.16732052730196
O           1.18119930903013   -0.11419872055105    1.50781993690818
O           1.45326048543207   -1.71320258207683   -0.28337527925231
O           1.54837551512308    0.67634320856079   -0.76012983092410
O          -1.12253003113203    2.54205474442254   -2.43907555866306
H          -0.43601660285913    3.20545018207051   -2.53094865087642
O          -1.79063082979621   -2.31909347021640    1.31857284085567
H          -2.49440844019855   -2.73397269061149    0.81772902690284
H          -1.45603668497728   -1.58138401511789    0.76979039490059
O           0.96164624222047    2.59572238521960    0.99432939448694
H           1.35543665734783    2.12268836158081    0.23887101074480
H           1.08550808469201    1.97966510601962    1.72558856467004
O           0.15799544826043    0.23829586741490   -2.98418943058438
H           0.80996188009722    0.39344265316202   -2.27254352655809
H          -0.33212448401989   -0.54099356421592   -2.71488372922279
H          -0.72949950602672    1.70326546692930   -2.76833913144476
O          -1.43560699909948    1.87627407233242    0.11039823689577
H          -0.65655795725202    2.32333908403504    0.52196610384348
H          -1.46471041410409    2.19871722402118   -0.82527626697296
H          -0.97069297141099    0.55151334396347   -0.03309172424905
N           0.77680902647380   -2.57506214370209    1.98640046691211
H           1.13966610567756   -2.54727684994094    0.97312815547692
H           1.27387364507886   -3.20285295812778    2.60785349319989
H           0.93577158472108   -1.54036609272424    2.17947972650994
H          -0.24753458867968   -2.74299620855655    1.95174759713046
