    26
        -50.45929214  Gyration_radius:  2.49781190895 Dipole_moment: 7.208
 S          -0.65890458611763   -0.12344699064190   -0.84022137261603
O          -0.08060743109145   -1.37662056205190   -1.33582452697460
O          -0.86390155050007    0.83287728998284   -1.92230743972421
O          -1.82438525071931   -0.33016959833092   -0.00612512682922
O           0.45049956607808    0.54657799800123    0.04445174030432
O          -1.10615704268509    0.52939863595116    3.48909950462695
H          -1.87385752333071   -0.02006167218514    3.65815315359291
O           2.74853806000113    1.01795008620319   -1.31456128342452
H           1.98898929238087    0.85811915658966   -0.71868903779903
H           3.13682159771678    1.85108056618028   -1.04348118652092
O          -0.89425457346788   -2.61696268602468    0.99975225591082
H          -0.43070757991456   -2.80382595613346    0.17519457940221
H          -1.49832048733484   -1.89308653123270    0.75360391621950
O          -1.82827816054608    1.96794128715588    1.33208226596551
H          -1.38298010486297    1.16963341266214    2.79632283207764
H          -1.08923163566998    2.40319875395272    0.90266465166237
H          -1.99527255029490    1.16127155239093    0.80576192707391
O           0.71309439906939   -0.81460568919587    2.10118270662272
H           0.20335307151171   -1.62272474917702    1.84960959706715
H           0.60846141806220   -0.02796488149684    0.93423942316390
H           0.13997429235601   -0.32690021992904    2.74447117565365
N           1.14609161253582   -0.07752431120702   -3.14041139196701
H           0.85646132872510   -0.90669615928557   -2.53922295012699
H           1.25772761233025   -0.28758384657767   -4.12571917945466
H           0.29352611053884    0.53158861262906   -2.89308640702380
H           1.98332008523845    0.35853651177608   -2.70693981688386
