    26
        -50.45929206  Gyration_radius:  2.49772631541 Dipole_moment: 7.210
 S           0.02171206984329    0.22798262143943   -1.04892019849115
O           1.11832204455665   -0.67829888629676   -1.40453753508739
O          -0.56260870801231   -0.30808159663420    0.30499268434405
O           0.46247328767479    1.59006619735012   -0.83175714958583
O          -1.09370379454577    0.10526122275635   -1.98081341320005
O           0.18799482713685    2.51248141400343    2.70709232492315
H           0.81591157334315    3.19221703455805    2.45504681020933
O           2.81413849467508    0.83618412910193    0.17182353687148
H           2.10665655402076    1.38374337883230   -0.21445873218528
H           2.81388187367688    0.05219852290005   -0.38942881016899
O          -1.44266412876304   -2.86749305705594    0.13910837302877
H          -2.24008817554743   -2.98542472953935    0.65730168722754
H          -1.12180563897417   -1.96189962637699    0.32438024716616
O          -1.55467845590913    2.47831323729043    0.65624315246864
H          -2.11406737664675    1.69918220815174    0.64774342958984
H          -0.54320303020384    2.56786931703651    2.05227763523953
H          -0.84411934739338    2.29441493089146    0.01058031542501
O           1.11897697107701    0.10796661904988    2.08011876392414
H           0.79920253298024    0.96016554363924    2.46969943714562
H           0.14728044445617   -0.16610333257317    1.09408551756143
H           1.90606087750187    0.34454415317568    1.53174489680056
N          -0.57156628327591   -2.33652424661156   -2.32301914485225
H          -0.54930989126928   -2.87268798201628   -3.18292666067632
H          -1.05987920900956   -1.37921328574066   -2.38968759608434
H          -0.98599624433989   -2.84837355658260   -1.51990896222195
H           0.37107875297686   -1.94849019076317   -2.01678060939969
