    26
        -50.45929207  Gyration_radius:  2.49774753417 Dipole_moment: 7.210
 S          -0.77672456142849    0.73310859630023    0.11264067825925
O          -0.79458059669986    1.18794287408845   -1.28136545327295
O          -1.79185390160856   -0.25984484543692    0.39586523769139
O           0.62450737343793    0.06194531004544    0.33224728932501
O          -0.77096871668611    1.85900812409632    1.03992262167020
O          -0.28024001646155   -3.54248781968960    1.02380729379221
H          -1.16276861471485   -3.85547882747394    0.81642548449624
O           2.69321998663513    1.74414511863068   -0.15879656105092
H           3.40332609589106    1.59894818550087    0.46809149840053
H           2.03036634344467    1.04305212212685    0.00435546799238
O          -1.64589221384992   -1.33296616435970   -2.03997686334451
H          -1.41853638450407   -0.47481397864398   -2.41622012232011
H          -1.96418224110037   -1.10482496357077   -1.14770127126534
O          -0.72836103813191   -1.37910648699408    2.56105526795452
H          -1.26419290350939   -0.95180348194755    1.86398415590668
H          -0.39820046999546   -2.83808302671520    1.69931570740956
H           0.04527053228341   -0.82167268715043    2.66486441881594
O           0.66819232083702   -2.05533326475348   -0.95893904795888
H          -0.13931691422086   -1.94343833581101   -1.51711558776408
H           0.68956534528797   -0.84699665500448   -0.23015900052801
H           0.42501082491252   -2.72167155815764   -0.26829101360891
N           0.53707092731469    3.24362758974160   -0.61062032128879
H           0.02459753226128    2.94181986946000    0.28684429344672
H           0.05338913441050    2.53948009093497   -1.24550437661242
H           0.40869574956912    4.21283517935522   -0.87814187781661
H           1.53260640661402    2.96260902543524   -0.51658788832289
