    26
        -50.45691220  Gyration_radius:  2.48233768201 Dipole_moment: 6.879
 S          -0.69598362722172    1.00092667122973    1.52082980621030
O          -0.99926426878571    2.12079436885268    2.34135710723092
O          -0.63091082468113   -0.29630542624191    2.17797685637166
O          -1.84511667356064    0.88563512397329    0.41769964199963
O           0.53283708175203    1.20608960851848    0.70441189999924
O           0.85594262062589   -1.54304937691630   -1.58810652548092
H           1.21767589697102   -2.32115523419196   -2.01260021735593
O           1.38262276514193   -1.97079299210120    2.56705953813803
H           1.72418111794668   -1.87221127563933    3.45642206439781
H           0.60722894542698   -1.37117922640438    2.50890076030420
O          -2.14070784882991    2.12608915513892   -1.96172067949504
H          -2.35613097732572    3.05538558863831   -1.86457593938487
H          -2.27906953459277    1.72024467567343   -1.08376983212121
O          -1.39456864429301   -1.60164417818121    0.00741477464865
H          -0.62092063958880   -1.70580442988969   -0.57539188297137
H          -1.05893038322372   -1.53678355405601    0.91907488146047
H          -1.80857845914180   -0.08393172710740    0.18392780589913
O           2.31828447550928   -0.74739165056255    0.36883589035389
H           1.49062604095223   -1.30072554335638   -0.83676105455086
H           1.80109366842412    0.05560139263906    0.58547013420335
H           2.16926614786192   -1.33507319315409    1.13725970186712
N           0.34932784838824    1.10847705879350   -1.83092520384900
H           0.43796423984407    0.09133399297173   -2.01383747728025
H           1.09857865009725    1.61772587693582   -2.28745324819335
H          -0.58741599635317    1.48017080660104   -2.10117224683335
H           0.43196837865775    1.21757349784027   -0.74032657556830
