    26
        -50.45804778  Gyration_radius:  2.48940388963 Dipole_moment: 6.740
 S           1.65382883943687   -0.14255463897529   -0.93071683009479
O           0.95117934318528   -1.14324578419329   -0.08250356358240
O           2.90329963066102   -0.61375205513944   -1.41515029872762
O           0.71400142143405    0.33651141343347   -1.94903871107397
O           1.91976662657044    1.07436886423414    0.04188922433609
O          -2.03376492627355    0.50934755638022    1.14755911787586
H          -2.66196370583614    0.87947531467692    1.76827450633089
O           2.17911580288890    1.08693610276640    2.79592898357772
H           2.24754233588595    1.20491950351133    1.83381734090512
H           3.00061102700083    0.68164132455799    3.07865768078872
O          -1.27018313635072   -0.80699530427955   -3.18998747432078
H          -0.93818334362170   -1.35554299833242   -3.90221629118864
H          -0.49196806653765   -0.29564511919848   -2.85913193723627
O          -0.39470921948765    2.12620948710795   -0.38488576187199
H           1.08064278584493    1.60637086357650   -0.02427203491662
H          -0.25323747819315    1.61569105479656   -1.20289983147726
H          -1.06652511140945    1.65041997369112    0.13423678597567
O           0.02164894961476   -0.51004662022912    2.33490653840408
H          -1.26425486436522    0.15720553334458    1.69432425868518
H           0.46238855897914   -0.85579069885302    1.53167832575685
H           0.66917460864348    0.11217347882603    2.71630788354640
N          -1.51890742745863   -1.48017152242638   -0.62991496425436
H          -1.97951616723581   -0.75067561894926   -0.05639730115024
H          -0.44811233067683   -1.39213760300312   -0.41835750116632
H          -1.85435003201827   -2.40285479067651   -0.37586800034933
H          -1.62752410067997   -1.29185768664660   -1.65624013477064
