    26
        -50.45804778  Gyration_radius:  2.48940043919 Dipole_moment: 6.741
 S           1.75105239370662   -0.58530025128873   -0.46135464647702
O           1.13093774632399   -1.76663737252756    0.14664658603098
O           2.96575008610149   -0.81546389386988   -1.16093710549879
O           0.72744985759680    0.10044757741641   -1.29594559907555
O           2.03552216140809    0.42841279879645    0.71721758647392
O          -2.09385452203690    0.72483100493148    0.89604565381868
H          -2.75461042524571    1.21103929184551    1.38992666736472
O           1.74780915212438    3.17925409902033    0.76491058546066
H           2.02367110473568    2.25056629251252    0.84040744655888
H           2.41125512993648    3.61658852408137    0.22857739632337
O          -0.74399784266711   -3.38349336399469   -0.66261545258889
H           0.03324326494616   -2.90171767972875   -0.28798550293618
H          -0.38294627847731   -4.01920852299172   -1.28221782754271
O          -0.52871363222310    2.28954229886044   -0.43649305866257
H          -0.00854203932328    1.58744747070902   -0.87859553049760
H          -1.52262891153365    1.41103655903328    0.42921309852528
H           0.13259590117685    2.79565893929063    0.07187199750033
O           0.07745730089556   -0.44204504841814    2.15025521794082
H          -0.75753001992771   -0.06941964895565    1.81686707971246
H           0.28240699717870   -1.21899226867856    1.59876563878939
H           1.33534052446617    0.20058440986390    1.38757257051488
N          -1.60684835963074   -0.92782402484379   -1.20496004780715
H          -2.14598461231809   -0.75113792419736   -2.04550928572892
H          -1.47642043972085   -1.95410908682836   -1.03078356145475
H          -0.60031827283010   -0.50767372694077   -1.30223655207009
H          -2.03209625466174   -0.45238646309562   -0.38864337467428
