    26
        -50.45899780  Gyration_radius:  2.47053135607 Dipole_moment: 5.011
 S           0.52680336114161   -0.22559326347711   -0.89812977511684
O           0.49526463700165   -1.38392375421754   -0.01796878234310
O          -0.42512961404768   -0.60660202314763   -2.08814907286130
O          -0.12377686230401    0.93291225842241   -0.24659381161495
O           1.82599478251658    0.11485655491447   -1.40934234566063
O          -1.00983312172810   -0.27123500412918    3.27450975909974
H          -1.30214295180114   -1.09241208676036    3.67492718990069
O           2.28468710510959    1.34438860440758    1.00609778694448
H           2.56900299522366    0.91148310137204    0.18916226531587
H           1.39278608892281    1.65260960989267    0.80190239340706
O          -2.01052124757420   -2.04610938511901   -0.11333275523592
H          -1.02399833076710   -1.99970343901669   -0.06662496808590
H          -2.21347719837935   -1.98426398348466   -1.05045147825042
O          -2.09419898138017    0.21158756676803    1.05896593197545
H          -2.22878904881365   -0.71345982410442    0.63675157171177
H          -1.69881372676288    0.04886874067048    2.02116951880878
H          -1.28230573673224    0.61144800575921    0.50197077146599
O           1.38082851667242   -0.76613863127795    2.44774851177346
H           1.15720183176202   -1.18923821652575    1.59916773772181
H           1.86842000174003    0.04008502085080    2.18781383610312
H          -0.04004224704780   -0.41120396070436    3.02996650324751
N           0.38453684966304    1.47304577061520   -3.41537497590536
H          -0.01238714212282    2.34090677013239   -3.07949100240818
H          -0.27171314176755    0.13159983276695   -2.75064653416866
H           0.60887033875211    1.57986091136988   -4.39625928258217
H           1.24273282271141    1.29623084405887   -2.89778899323812
