    26
        -50.45488967  Gyration_radius:  2.47844859886 Dipole_moment: 2.645
 S          -0.85357292336626   -0.44017105007300    0.72097804436113
O          -1.31138520581394    0.21299752047883    2.04832374664967
O          -1.30569553946560   -1.81125105224540    0.65289736128799
O          -1.43149265668777    0.39524675497305   -0.34500570641062
O           0.61146305202399   -0.37399798556252    0.65884495881279
O           1.45695267804226    1.31312965660037   -2.70933532938201
H           2.28915742390583    0.88272363231736   -2.91469386730200
O          -0.90515155811344    3.00720922969803    0.04559735443427
H          -1.40637559942148    3.47923350442644   -0.62164981016380
H          -1.21941026025151    2.08397277961863    0.02341458582678
O           0.61726420161155   -2.19213979093518   -1.21625096723915
H           0.91285657708160   -1.57663951670465   -0.50711110299862
H          -0.14995537809879   -2.61806544376431   -0.80504326989156
O           1.57199408482812    1.94825588622966   -0.23775018296075
H           1.32363275870553    1.10395756930851    0.19192660367594
H           1.53654775342182    1.64276556431752   -1.74762410483956
H           0.81707752132088    2.54262917751000   -0.06434409021239
O          -0.43813343085672   -0.30594849511215   -2.53315411657629
H          -0.95976963893480    0.03828124591818   -1.70400435976304
H           0.34600802281521    0.40080887977289   -2.68615926669404
H           0.01350089436777   -1.16188705480189   -2.16413993618954
N          -0.24971758688172   -1.80161350620823    3.30668736349332
H           0.75393613007970   -1.71755171156489    3.21015237024818
H          -0.45280025593017   -2.32370052190850    4.14933659138327
H          -0.96637399730020   -0.41382747882447    2.74580776568640
H          -0.60055706709323   -2.31441777346596    2.50229935475725
