    26
        -50.45781627  Gyration_radius:  2.44485578328 Dipole_moment: 6.398
 S          -0.63303625196454   -1.56831211418435   -0.84798002781133
O           0.34510987657263   -0.55679570646275   -1.27496718057117
O          -1.85464667943297   -0.86965452045907   -0.38176632504573
O          -0.86589672495335   -2.58037320902794   -1.81792706329336
O          -0.00286241937624   -2.23402452450737    0.44102431014856
O           0.09647771668041    1.75315818743619    1.60166271423533
H           0.44342288982789    2.44684724481407    2.16338923651475
O          -0.14930930381962    1.45316275861547   -2.86156339847469
H          -0.52902409859102    1.12537836164020   -3.67833384217975
H           0.20107603519832    0.66013975997064   -2.39020354687673
O           2.65399232850615   -1.98509991588907    1.21413529412416
H           3.24419273177735   -2.46405448875809    0.62988779776643
H           1.75227028387344   -2.26073419865920    0.98157716103369
O           2.02194280159541    0.54842271244589    0.42818539341100
H           1.49045680308022    0.16215365441329   -0.30214649810237
H           0.90429038299698    1.29908222099085    1.18811861137888
H           2.40170301555130   -0.22635303546893    0.88299357648725
O          -1.16413062391941   -0.66284095649079    2.15591910928211
H          -0.71926590681700    0.20161993425480    2.14469809325790
H          -1.79320882531116   -0.65819492310747    1.41473591396355
H          -0.37187428457627   -1.71886066667061    1.20442990611512
N          -1.50763473929993    1.66026908589361   -0.57750415373798
H          -2.36559725299435    2.19962519773390   -0.53364060754560
H          -1.71187534041284    0.59316410881607   -0.52309537848657
H          -1.00552766566712    1.80128075104994   -1.48862843551369
H          -0.88104473852289    1.88099429161259    0.22699936991976
