    26
        -50.45531803  Gyration_radius:  2.42697626177 Dipole_moment: 6.005
 S          -1.62234536992417   -0.55385729326184    0.82505664073533
O          -0.40252902655691    0.13443506252686    1.56500232235157
O          -2.50194911041337   -1.00213846287316    1.85145339797580
O          -2.15500045795850    0.42725134862504   -0.11180592136183
O          -0.99734267599848   -1.68412156593406    0.08103945994129
O           1.34651955835304    0.23036077151359   -1.99015137566746
H           1.70194017263050    0.47410156698667   -2.84552533328772
O          -1.57483968588116    3.01346652955403   -0.21532848335668
H          -2.06124624470060    3.45496684416060    0.48221216580154
H          -1.91295364886565    2.09253430222702   -0.23920907171584
O           2.55400936217577   -0.43935840754585    0.39087510515209
H           2.35614737017538    0.42327209758563    0.77311742642267
H           2.23270660756549   -0.37538374630788   -0.52739009648388
O          -1.11570677728495   -0.54159706962109   -2.33547205570057
H          -1.10341628548115   -1.43160878511667   -1.96359555995356
H          -1.60445300892764   -0.03726090128525   -1.65019859041537
H           0.40986811705702   -0.08229207736405   -2.15821193237430
O           0.81818874402850    1.88927102433520    0.11133264043615
H           0.98688219458698    1.45710380271569   -0.74693063341092
H           0.06033529900307    2.49423070152073   -0.03854934476000
H           0.03989716302427    0.82174366292595    0.98505321681101
N           0.93541177705596   -2.18563103765351    1.57785851048494
H           1.25279789606227   -3.14637372067443    1.65010952105504
H           0.64250276827206   -1.81749134951018    2.47901695942624
H           1.67268825855530   -1.54888501315951    1.15887642241725
H           0.04188698341409   -2.06673828434312    0.89136459961604
