    26
        -50.45599946  Gyration_radius:  2.47910432232 Dipole_moment: 2.527
 S          -0.83575361566635   -1.07576723946183   -0.57579138020744
O          -1.21395992498094   -2.09460890089257    0.36008046005776
O          -1.87626865099801   -0.96435090163877   -1.67380411222802
O          -0.90206958151210    0.30501709907790    0.10068950711427
O           0.48100846125896   -1.26001714512605   -1.14304083110032
O          -1.40519442789677   -1.44487914076830    2.96219919411285
H          -2.32532051327557   -1.30053239382470    3.18710345885506
H          -1.39812744751672   -1.80241259188295    2.05307760804845
O           1.21333740754700    1.12918743350999   -2.16709110325796
H           1.27918622753945    1.69529137853362   -1.36067565992973
H           1.18357647354563    0.21464253083989   -1.84023616085554
O           1.67378716438004   -2.00262078267410    1.13192518338106
H           1.11401371078171   -2.72814235979236    1.42032379462266
H           1.42559674835938   -1.83040388658576    0.20600738768844
O          -1.19969109901631    1.03130720890142   -3.03398725245535
H          -1.64951181548503   -0.12352007555289   -2.24393679366647
H          -0.24596616512770    1.18265688543138   -2.72372473418933
H          -1.14205934212763    0.77735602687956   -3.95818389953674
O           0.56220298330751    0.17479311281303    2.14322399000078
H          -0.28853995166703    0.32731772396125    0.93746968293968
H          -0.09307496794648   -0.25857303491789    2.72673878074422
H           1.16546397056360   -0.56008644983742    1.87357352298438
N           1.18191030105094    2.53695556068182    0.16510695299586
H           1.69448305329078    3.40159565097813    0.28433940822067
H           1.40863474087244    1.92641805469406    0.94155112834647
H           0.19233624072016    2.74337622666564    0.22706182730999
