    26
        -50.45531817  Gyration_radius:  2.42694601911 Dipole_moment: 5.997
 S           1.26602719169411   -0.41962076639070   -1.35732896994299
O           0.44901526714944   -1.61639616302369   -1.00811133849817
O           1.82973576232101   -0.51132968991942   -2.66191148297918
O           0.20781300160269    0.75741943691341   -1.42054974297006
O           2.18203737179513   -0.10477242242926   -0.26842081019768
O          -0.93904537212917   -0.45109198936898    2.17678292383854
H          -1.08928572926070   -0.56320706493377    3.11605716321868
O           2.38814631602832    2.19828827009891    1.03123802847831
H           2.88493525228027    2.80623264040771    0.48206337544913
H           2.44720347103915    1.32449128129673    0.58855268646072
O          -2.60193624892420    0.30126582015401    0.11612360581173
H          -2.21875267110532    1.18530776124240    0.08449576718014
H          -2.15336470802359   -0.12898682735541    0.86722060506268
O          -0.24823169038873    1.84750041107692    0.87875033852917
H           0.06427710094044    1.17230347271407   -0.51952880759499
H          -0.41589398781879    1.11165718938095    1.49705542773889
H           0.66451146495214    2.15321514367422    1.06898312486495
O           1.22199022035527   -1.76030324538672    1.54889160739208
H           0.90336771014079   -2.35780646833833    0.86182339039351
H           1.73675632348877   -1.10477778915575    1.03113034149424
H          -0.11739158564756   -0.98231854705649    1.96234480086277
N          -1.73044961679393   -0.98232358925671   -2.04512660879622
H          -2.19001342235942   -0.47918420135290   -1.23258463899463
H          -2.31690708022477   -1.71831005441601   -2.42371756340809
H          -1.46824757417608   -0.30612723378596   -2.75748652169680
H          -0.75629677689584   -1.37112538467665   -1.61674670170985
