    26
        -50.46173766  Gyration_radius:  2.45753127111 Dipole_moment: 6.251
 S          -1.04192204417370   -0.14932186699619   -1.04962784257903
O          -2.13321817769722   -0.42816167078565   -0.14874958784454
O          -1.07682939661570   -0.89153749832170   -2.30961383522229
O          -0.85305729331772    1.28152135417509   -1.28344024182619
O           0.28578861932693   -0.67124719568587   -0.38952335751607
O           0.56378892490604   -0.94659780716751    3.23377792282399
H           1.19221177843795   -1.66914043094786    3.26306773949574
O          -1.42615272618811    1.99435871230221    1.20112065006598
H          -2.06946961911521    1.30520859437432    1.39034475150967
H          -1.32440493649684    1.96248833039228    0.23070601884724
O           1.71397250066433    1.61426907984031   -1.43005649366250
H           1.96513239105515    1.50641108260085   -0.50487097272199
H           0.73115689706299    1.71501157956166   -1.40664946463394
O           1.01825510897492    0.94960083140091    1.42162577865370
H           0.20350240221294    1.50015205858767    1.48529534925671
H           0.97713948948810    0.35294313349144    2.20388417921335
H           0.58349106104441   -0.04633490088552    0.35989451355957
O          -1.56283279539621   -1.95322086740025    1.92882835550660
H          -2.41298641028870   -2.05791034398667    2.35955002671793
H          -1.74042319814088   -1.44271950558387    1.10838414286541
H          -0.23982755062229   -1.31026158180938    2.80091660447678
N           1.35665717521765   -0.52937525756967   -2.91747636215848
H           1.61766114897569    0.32554601648964   -2.32234411682995
H           1.52840280680454   -0.35610383069969   -3.90333652458971
H           1.87102193735462   -1.34347410645339   -2.59402551487165
H           0.27294190652437   -0.71210390890525   -2.72768170853818
