    26
        -50.46173760  Gyration_radius:  2.45737455092 Dipole_moment: 6.254
 S           0.48218109984410   -0.54142165947666    1.29786840556513
O          -0.02712986089039    0.53216721959548    2.11529075751717
O           0.81585144991604    0.03943586016921   -0.12414467722493
O           1.77229857986322   -1.08302652547500    1.72441245591876
O          -0.49656085833988   -1.60746330890094    1.09001234994857
O          -0.92095897962728    2.99061852372552   -1.36898391703565
H          -0.22353592620543    3.32511206636517   -1.93439249880953
O          -2.57348115390141    0.02457217868246    0.91176199057566
H          -2.26185633776774    0.70068140518828    1.52033878810390
H          -1.98613093947045   -0.73622291437285    1.08304316373363
O          -0.13564859667511   -2.39588478706240   -1.35364179787620
H          -0.43885173815925   -2.25534091337133   -0.42358475831587
H          -0.51105607533818   -1.65345671992696   -1.84189791150499
O           0.16425110416731    2.95855283101162    1.09316508987670
H           0.17278844344389    2.04579401320440    1.45675892017341
H          -0.55827723011072    3.01578208937376   -0.45616003909464
H          -0.17165279552159    3.51605966057425    1.79721612411633
O          -1.33817669677027    0.36208415103157   -1.42799576978295
H          -1.98887360235018    0.23701794173075   -0.69858633694672
H          -1.30339698263437    1.33646311214537   -1.56562854234555
H          -0.03985971712804    0.20086602829803   -0.65555177471426
N           2.33811213497699   -2.22304447103769   -0.46701428257309
H           1.37562222333331   -2.31275358718360   -0.93467568063423
H           2.91960265858310   -1.58101568950345   -0.99768051777225
H           2.14851922764118   -1.76605654216494    0.53260530805363
H           2.78622056910145   -3.12951996263108   -0.37253484895174
