    26
        -50.46173767  Gyration_radius:  2.45755115381 Dipole_moment: 6.252
 S          -0.02188315793540    1.04966174260476    1.05291715723829
O           1.40892507247920    1.15105908350525    1.20368266397150
O          -0.54426167353322    1.92902345341012    0.00816963762355
O          -0.36682510210630   -0.41904556586245    0.61150309384796
O          -0.78441645437806    1.19008043939974    2.29327153751770
O           2.08694152576635   -2.43519557410940   -1.17769793180139
H           1.79745680853852   -3.29684718888701   -0.87491919483275
O           1.51329055738388    1.58994087379636   -1.62292637561051
H           2.19513375379393    1.48018778327796   -0.95388025204145
H           0.75357173503936    1.95290992928238   -1.12873477266012
O          -2.44468042463454    0.58089447517006   -1.12923421578668
H          -1.93457531540277   -0.07125701334927   -1.62435504273180
H          -1.77680945810047    1.25430012811766   -0.85145208680164
O           0.17697885992554   -0.70731076778218   -1.85137508291068
H           0.86045961852581   -1.41325470225491   -1.78840332953597
H          -0.13097974520550   -0.56332014705066   -0.37046659096087
H           0.68847728280823    0.12133409820606   -2.00206138631342
O           2.75290380737974   -1.11706632193057    1.07167821767111
H           2.20440418242069   -0.30857293272954    1.17602538867365
H           2.37918710118974   -1.95441119507191   -0.37222144400352
H           3.65532798775800   -0.84383048834914    1.24551495297984
N          -2.92882861368878    0.15620818917165    1.42436510101913
H          -2.81488720375342    0.24986299163151    0.36070470966973
H          -3.77983038514833    0.60945469989740    1.74350949260979
H          -2.91667858602782   -0.82523185640704    1.68626457110901
H          -2.02840216306909    0.64042586632940    1.87012117205168
