    26
        -50.45997519  Gyration_radius:  2.57054905219 Dipole_moment: 7.038
 S           0.06513056897147    0.28528069496553   -0.99859349223635
O          -0.95124104240786    0.87698981112333   -1.87839861733547
O          -0.73246657807635   -0.04192936815540    0.30169494632293
O           0.54204104620348   -0.99003055893527   -1.53113964221510
O           1.14146647314217    1.19308443736339   -0.67831114845315
O           1.29700011788706    1.49836751198081    3.22094466121835
H           0.63569352371790    1.63631507181842    3.90063675942779
O           2.73402833895568   -0.95096383343810    0.01811839010854
H           2.83045379338299    0.00075608239125   -0.09968185816354
H           2.06098101598107   -1.19448118285931   -0.64171569401496
O          -1.32044388519884   -2.69626554802716   -2.10424509378639
H          -0.53781605500926   -2.13678784443315   -1.84960816452674
H          -1.16673661960244   -2.94983819080487   -3.01620366456549
O           0.57587247933087    3.01359190433626    1.12805453624352
H           1.15549062661874    3.74618153203015    0.91076549001206
H           0.71990148641337    2.34539047692189    0.42028774370669
H           1.05080227098082    2.09407600773101    2.47710704752273
O           0.93285184508335   -0.84912446427277    1.98372202975871
H          -0.06912164940570   -0.39719542547451    1.02780737042189
H           1.71237067547558   -1.01332031039456    1.40372862400511
H           1.14990921446647   -0.04477150361920    2.51033949599857
N          -2.81966461257901   -0.69487994134976   -1.30168601401835
H          -2.41328956551902   -1.60352640654676   -1.66418167595260
H          -3.76641834284528   -0.52117319619461   -1.62158935500476
H          -2.74786822529104   -0.68573866677436   -0.28461703546430
H          -2.07892690069045    0.07999290061513   -1.63323564903238
