    26
        -50.45114709  Gyration_radius:  2.59851522648 Dipole_moment: 3.632
 S          -1.34389404487382   -0.97700893323855   -0.50612286519465
O          -2.79275172610383   -1.43383067387151   -0.72475744866339
O          -0.54719763170625   -2.09550244037257   -0.08992864828096
O          -0.87739790785611   -0.28880402262905   -1.68191078988354
O          -1.46410555540049    0.04297483354616    0.63411914925563
O           1.67906498892108    1.97322436901463    1.26814462109251
H           1.34379806995699    2.85420695017212    1.43587789930852
O           3.27287213067674   -0.28567376857256   -0.25945438957725
H           3.44336289749531    0.38427460143854    0.40827747039611
H           2.81388274361138   -1.00691193323738    0.19947509138246
O           1.73821120966268   -2.10931041439596    1.18648035285980
H           1.95074584670427   -2.99930108218470    1.47239741931519
H           0.92837900732494   -2.18322847647013    0.63318846915217
O           1.27568265388186    1.29933378442150   -1.24395096126729
H           1.50061062206973    1.78691830458762    0.30753138453336
H           2.03241414660185    0.68424350738521   -1.23175484408718
H           0.49853505947828    0.76120515638659   -1.47229689800305
O           0.36046061026631   -0.04748121082967    2.32835159820900
H           0.90930501205564   -0.82020983814100    2.09755771380161
H           0.88758402186987    0.74412907908407    2.04819445605425
H          -0.72225989665907   -0.02698265998416    1.38753277767161
N          -3.45631113771568    0.84889941651729   -1.67978608083378
H          -3.57588578624747    1.54177766995901   -0.95302520764007
H          -3.24318332803919   -0.59565617352329   -1.10195659402536
H          -4.10702275210529    1.04059154949739   -2.42999592395969
H          -2.50489925387860    0.90812240546970   -2.03218777169207
