    26
        -50.45114702  Gyration_radius:  2.59855667521 Dipole_moment: 3.632
 S          -1.69248267889745   -0.38553106312971   -0.05126736582341
O          -1.52526814781635    0.55890872888532    1.02282956329002
O          -0.94153491419884    0.14384116151877   -1.28044387283231
O          -1.28272613082159   -1.72938634955762    0.24028926651424
O          -3.15828549043207   -0.38486398509465   -0.50631045987628
O           2.65888694130680    0.92794142351578   -0.62555920853674
H           2.78141657752170    1.73805363385024   -1.12093293937924
O           2.50539395271594   -0.91613971499240    1.93612121494243
H           2.03904603535293   -1.62852162923867    1.47076170164373
H           3.17404767361810   -0.59622883573750    1.32430466664344
O           1.13191655948843   -2.73602640769603    0.33241681539638
H           0.20527740294781   -2.41335246821138    0.40055400837463
H           1.08866286877642   -3.69198029393670    0.38974834455897
O           1.04362967858919    1.33297258878192    1.41270126958200
H           1.44468475076494    0.59962423451525    1.91521119843841
H           2.04827053161592    1.15268880042945    0.12673936770550
H           0.10109275863857    1.11093964317291    1.32348771172202
O           1.23183237774019   -0.97852329730785   -1.75463478774525
H          -0.04419462427650   -0.36606815444617   -1.52020243864285
H           1.85482258941564   -0.28359017978608   -1.42002511372173
H           1.30178230289125   -1.71703515743509   -1.12120458673888
N          -3.23746389825047    2.17564090365546   -0.52624403295102
H          -4.01208436002363    2.77312141528956   -0.26941685077737
H          -2.56837375517689    2.13991685045317    0.23789856499625
H          -3.37014097421195    0.61251410729878   -0.59624396831262
H          -2.77820802728926    2.56108402521178   -1.34057808843996
