    26
        -50.45075316  Gyration_radius:  2.56191934737 Dipole_moment: 4.154
 S          -1.12373668467748   -0.22373670771186   -1.29256129487782
O          -2.63698051216659   -0.39440803563817   -1.61590354097056
O          -0.50758370897838    0.60032098875824   -2.31579298049231
O          -1.02340737120146    0.40791680376466    0.02720370125849
O          -0.56355184963532   -1.57644439936882   -1.26344404469739
O           2.69030905104914   -0.98368157743121    0.32154928983029
H           3.36723736551149   -1.30125671794858   -0.27793942810351
O           1.91953794639489    0.17287992576100    2.77220911538833
H           2.37853525936046   -0.15658438854742    1.98541926366306
H           2.47762108456817   -0.01962420811408    3.52669146579043
O          -0.54928100068337   -0.83177587373841    2.25564438599691
H          -0.88099878898935   -0.29740644330801    1.48775368016492
H           0.21552797963175   -0.33716427548192    2.61083944127339
O           0.56855367184061   -2.44342733630938    0.74044536549590
H           0.05803180648977   -1.85581100020715    1.49543616637970
H           0.03268047134265   -2.17037463348570   -0.14137483039964
H           1.45811030015274   -1.99426160526249    0.61171891388068
O           1.50467099682250    1.07787435741330   -0.69816975452303
H           0.95513304104931    0.92348417758219   -1.49596168987265
H           0.83670976111678    1.25736938819493   -0.02269596483453
H           2.26916197062941   -0.18908589871043   -0.12992893145610
N          -2.76536440026030    2.22374860013279   -1.72835848572015
H          -2.95592395498765    0.54217035209030   -1.68953788595412
H          -1.85898000379954    2.08906811917323   -2.16878302020206
H          -3.26533797183135    2.95486937391978   -2.21791214289977
H          -2.60067446874872    2.52534098446317   -0.77654679411254
