    26
        -50.45075310  Gyration_radius:  2.56190469487 Dipole_moment: 4.152
 S           1.47059016912429   -0.85003882057359   -0.31335091415318
O           2.90671936329657   -0.68970223291081   -0.89276226089840
O           1.51957576640646   -1.71800147978212    0.84844163940687
O           0.98748966558793    0.48738529886166    0.04448475401002
O           0.66316221553556   -1.42075390565215   -1.39372108731402
O          -2.73379606916462   -0.90399675010650   -0.11322162903007
H          -3.16102433206486   -1.76096361655249   -0.07382756572180
O          -2.78782464082249    1.89190493038614    0.23021513453630
H          -2.94917823770051    0.93680915833060    0.22662412033407
H          -3.63045828923880    2.32181297112772    0.07896817744609
O          -0.60915156826195    1.94567611760393   -1.38932413172024
H           0.11405910958725    1.53252522391610   -0.84985876334517
H          -1.32249143109752    2.15875097367382   -0.75571171706135
O          -0.81444909717085   -0.79448559311081    1.61880599945253
H          -2.00218239313857   -0.92563936728994    0.57730644308780
H          -0.03771096047341   -1.37098546466397    1.45553332654438
H          -0.45637405745404    0.08550253594029    1.43999132091712
O          -1.34303580893798   -0.26890384877591   -2.22743435085566
H          -1.06629804882341    0.75269326940646   -1.99514391622493
H          -0.44990022627033   -0.79617023078764   -1.97262348810270
H          -1.98104062420952   -0.54255858810393   -1.50090067885233
N           3.64386118783540    0.04791785293170    1.51485720968689
H           2.98949924224119   -0.68839623872461    1.76675829245205
H           3.42714092722894   -0.36568980872928   -0.11270972138944
H           3.17644368038254    0.93381601062384    1.65884977555214
H           4.44637445761070    0.00149160297019    2.12975405123011
