    26
        -50.45871483  Gyration_radius:  2.56171832448 Dipole_moment: 5.903
 S          -0.64817017504436    0.07361199287905   -0.91100420762809
O          -0.51516383187918   -1.30870135696433   -1.39480456816866
O          -0.59918580917984    1.01776543819617   -2.02398797279679
O          -1.77894577573988    0.25326340211696   -0.03105277337847
O           0.65614927179210    0.36552654292335   -0.09469896630880
O          -0.45022245891985    0.76356636607622    3.62397508706591
H           0.23014463609775    1.32870680122855    3.99288606193664
O           2.94351575182532    0.31423026408133   -1.52913845115896
H           2.20458083640681    0.32298184457614   -0.88572268823190
H           3.36289591188296    1.17385154526709   -1.46350397535855
O          -1.49115611270353   -2.33208274927414    0.88293109497431
H          -2.12844965798664   -1.61382677503821    0.96685730086126
H          -1.14035934414969   -2.21892098844380   -0.01880644937199
O          -1.70037934130778    2.19966200039498    1.74124206428553
H          -0.93873172483651    1.31617481982557    2.97167994924335
H          -1.69770700729768    1.52803247048255    1.02330593699804
H          -2.62288837942052    2.41822323859643    1.88578392160889
O           0.57604801757294   -1.04515992867448    1.95262918155468
H          -0.14594563117947   -1.67413687594201    1.71289903830256
H           0.65829091360041   -0.22590690244704    0.78586369016600
H           0.20430825332373   -0.45583320143126    2.65247685153967
N           1.04016789299491   -0.45589628100179   -3.22707369315051
H           1.97022962042263   -0.24301248635816   -2.80468340536966
H           0.55233206702485   -1.17671767371051   -2.62838559764047
H           0.37931825307495    0.36466209921848   -2.96721285881581
H           1.07932383363520   -0.69006358658366   -4.21245457115871
