    26
        -50.45469727  Gyration_radius:  2.51063257128 Dipole_moment: 5.586
 S          -0.31960104228975    1.25167765183696   -1.79816465895363
O          -0.47133538490552    1.50473158930880   -0.37539490918860
O           0.97412825310571    1.91730121951600   -2.27493370309989
O          -0.06765319021266   -0.26058611956280   -1.99492973810127
O          -1.42048064095868    1.63057916596074   -2.61086664860637
O          -1.71424531292355   -2.00530300853598    0.69909982277500
H          -2.28642501750157   -2.75827133458933    0.54457262418274
O           1.03307205162963    0.64465410004294    1.64203402425808
H           0.44066745301544    0.30271882092677    2.33651195281694
H           0.44782049095957    1.13675750694008    1.03405395477911
O          -0.82898001279164   -0.78403749200424    3.03970851119896
H          -0.66577764715882   -1.47832461495999    3.67921405510470
H          -1.24332148972286   -1.20417651200847    2.26644210008315
O           0.88478774014907   -1.44366094875857    0.02706709790372
H           1.03835857290395   -0.71963357159025    0.68842791524227
H           0.04567543541506   -1.85735114420846    0.29755164935692
H           0.37020557925059   -0.73323520432930   -1.19204544051564
O          -2.73724021687957    0.10827839530255   -0.55362912722208
H          -2.82037947453568    0.26697913328493   -1.49904410148095
H          -2.12347342676293   -1.24812091994316    0.21367185733241
H          -2.07959401813295    0.76209132670154   -0.26293406642259
N           2.77936529987459    0.96151114500632   -0.72982518336555
H           2.85638897152941   -0.02948667946349   -0.92466694990550
H           2.46401810789012    1.06892003281202    0.22975415748911
H           3.69190134885645    1.38734316661309   -0.82467394090242
H           1.75211758017006    1.57864427566384   -1.65700125474456
