    26
        -50.45235265  Gyration_radius:  2.59585006806 Dipole_moment: 4.466
 S          -0.10211526987640    0.66860014555730   -1.40463147159559
O           1.29026605527095    0.27770528908075   -1.08842048741278
O          -0.39109088816432    1.98324237703920   -0.85537101917624
O          -0.20074723600970    0.73772668961592   -2.95315618465281
O          -1.03533548631015   -0.34470982429765   -0.95106226293224
O           0.08437628022972   -0.19083324021964    2.56151513580039
H           0.51279694954381    0.40224363829820    3.18041924695465
O          -1.52138296931350   -2.47441408185682    2.40184895065657
H          -1.36671838887960   -3.09818793750342    3.11243352162247
H          -1.03090355271417   -1.66596224657043    2.61908904481185
O          -0.49822684790450   -2.76151257929116   -0.09515159817006
H          -1.03679995048855   -2.81486672206546    0.72004043421197
H          -0.84192376144951   -1.97979592052268   -0.58571148549037
O          -1.67697462090422    1.17526738586972    1.27378485646266
H          -0.60067406330791    0.36836200529640    2.07029407807065
H          -1.21156462925223    1.63530385937609    0.53656173427249
H          -2.20231970136784    0.50606549183541    0.82243367740061
O           1.44162302392665   -1.40888807953854    0.68508420032399
H           0.70238002406633   -2.10891564532257    0.34771943946274
H           1.44936004158451   -0.67379713816960   -0.11807775777473
H           1.00936757170179   -0.93577494989296    1.45658417343161
N           1.55293640562064    2.66410893438606   -2.81067108396174
H           0.99772755296503    2.92282087111718   -1.99942797403286
H           0.44644077077025    1.45824460071616   -3.17841737512509
H           1.87110517674393    3.50398236909265   -3.27763593389213
H           2.35839750352736    2.15398467797380   -2.47007386926754
