    26
        -50.45235265  Gyration_radius:  2.59579729262 Dipole_moment: 4.466
 S          -0.70724794431122   -1.17226321481859    0.74722021537909
O          -1.68646981022447   -0.26490745467259    0.10684383667294
O          -0.25167082123495   -2.17102282411818   -0.20570012646433
O           0.38456643965706   -0.41846698624283    1.33294770438229
O          -1.45811243931484   -1.88629716017882    1.90426448652613
O           1.31101988001011    1.22115134020611   -1.84252246357257
H           1.24275147345065    1.09695684560627   -2.79029449213207
O           2.72210749587168    2.60323369058739    0.13681742625784
H           3.01064462004488    3.47413948450183   -0.13924197037676
H           2.37432098400998    2.15421760708331   -0.64978373279480
O           0.54275496270652    2.17124194938387    1.69533777732669
H           1.43582633058447    2.37291956444283    1.35018751511901
H           0.52067541198492    1.19347471249380    1.81052391682787
O          -0.75989776040256    1.94420384151229   -0.41512007593528
H          -0.27354271306166    2.17285729899506    0.51275317503409
H          -0.01285154264579    1.71131275986079   -1.04225364746308
H          -1.24204242149928    0.99182239422303   -0.19675705252274
O           2.02168194055182   -1.03027212507637   -0.81587145807767
H           1.20688022452053   -1.57385965409682   -0.70558742176265
H           1.59097679909507    0.32549980891547   -1.46488902515284
H           2.26313439459822   -0.80465452934191    0.08877221705586
N          -2.97929605680088   -2.91922476543235    0.05363485533795
H          -3.44232985954988   -2.08654209297295   -0.28881279509044
H          -2.09359861066512   -2.99287611053447   -0.43961216107715
H          -2.16927080203285   -2.38733549002759    1.42243063457456
H          -3.55101016532945   -3.72530889029500   -0.16528735806284
