    26
        -50.46460230  Gyration_radius:  2.41131335884 Dipole_moment: 2.667
 S          -0.29395287877234   -0.04709137723362   -1.36424917279923
O          -0.42850464260020   -0.62601160026009   -2.79107292146727
O           0.36822034988962    1.26035696879409   -1.46275547774670
O          -1.62441814421226    0.06123238283783   -0.79970529729335
O           0.54439739163368   -0.96649825121185   -0.58417909544768
O          -1.02418217120961   -0.60684703735611    2.80749342597384
H          -1.28141591030448   -1.02488940671197    3.62995256584017
O           0.46855633182809    2.29682352259684    0.80205362998900
H           0.46157676972280    2.00150928539276   -0.19854312167116
H           0.96626681087986    1.49409634730508    1.26267096180790
O           1.35478836606979    0.12136175158828    1.68181839887633
H           1.19851973060775   -0.36799445946200    0.84069796614314
H           0.64050175388387   -0.17168048081054    2.27901634924398
O          -1.85856396550650    1.56195878473506    1.36041788168234
H          -0.53619639309669    2.15945823388253    1.09720357638792
H          -1.97079402743275    1.06940411761844    0.51576568851213
H          -1.70477063260502    0.87486183635329    2.03624668122825
O          -1.42031821158304   -2.16657477374392    0.74174832353955
H          -2.07325838120299   -1.67297093790431    0.22931400971785
H          -0.58647206094194   -1.96876035753465    0.27118775370828
H          -1.21093726606983   -1.26718916603300    2.08169233958733
N           2.15045448556742   -0.41799651576675   -2.95571462831974
H           0.52307945588742   -0.65285533114570   -3.09563250895344
H           2.05970694554722    0.52925210597200   -2.60443106713097
H           2.36195854150732   -1.01361436901579   -2.16434293795863
H           2.91575774251077   -0.45934127289967   -3.61665329343195
