    26
        -50.46460246  Gyration_radius:  2.41109265396 Dipole_moment: 2.664
 S          -1.15246024726783   -0.30045393231161   -0.72971839762251
O          -1.41789282076251    1.07227915111448   -0.34815429928679
O          -2.50244153431756   -0.96472799139524   -1.08423909308207
O          -0.27983814684344   -0.38337787206620   -1.90835869104637
O          -0.55667747316062   -1.05756345885528    0.37878137577842
O           1.17838867169468    1.70606388146644    2.23494919106349
H           1.43896637264029    2.07680691763314    3.07876191243097
O           1.98389494210488   -0.43455958321729    0.74362142038441
H           1.08047195826593   -0.81988324246455    0.66206099005320
H           1.89352475057265    0.27983434633955    1.40261174066995
O           1.85412392606118    0.81228831264444   -1.42918965444770
H           2.09101198976481    0.26207015416977   -0.56597956438034
H           1.00410829526316    0.31601362068716   -1.77556391531489
O          -1.20746252116594    0.63052117789110    2.32448351898355
H          -1.00507288562258   -0.17110925741210    1.80261849683913
H           0.26400489733949    1.32448156366897    2.36149829218501
H          -1.70438538399739    1.17049982134298    1.69671776353497
O           0.66929044558666    2.68786974733727   -0.26914187208603
H           1.46186572458112    1.71298549792378   -1.04141324674899
H          -0.21444137055913    2.26315730781415   -0.35474361342349
H           0.92620286675260    2.55352066338032    0.66276827517728
N          -1.13674033026323   -3.10403587036402   -1.61169606253023
H          -2.21981354516813   -1.88898490707231   -1.33881494826392
H          -0.72330338085494   -3.19394533986693   -0.69143238384390
H          -1.21249695549409   -4.02104838647598   -2.03317357192845
H          -0.51282824515342   -2.52870233188372   -2.16725368310661
