    26
        -50.45235259  Gyration_radius:  2.59673194553 Dipole_moment: 4.460
 S          -0.48336429182465   -1.39758593584012   -0.49094806187536
O           0.03008442384501   -0.57351643603422   -1.60863779524781
O           0.33622663044672   -1.22504455953698    0.69312326032296
O          -1.88571501069748   -1.09889176935266   -0.25101564477986
O          -0.35413310943289   -2.87908617482587   -0.93903993780952
O          -0.13854297129937    2.43415030345755    0.82050264966566
H          -0.74938860540113    3.11576524797949    0.53650063909218
O           2.66607235104397   -0.04286579070070    0.88253159120914
H           1.91936397489867   -0.68445129975822    0.90644115886872
H           2.54237556080993    0.52983566363523    1.66624492701949
O           1.92494978216457    1.89711364299784    2.62954497520330
H           1.16324964495215    2.20926446155928    2.11597578685622
H           2.46559682391616    2.66304414660142    2.82718425504241
O          -1.53421291756739    0.49954232959744    1.78946484485278
H          -1.83009872311191   -0.06090495151826    1.03445292910569
H          -0.88351778786658   -0.05289856429698    2.23544558290590
H          -0.70980681968088    1.68854409843009    1.19551028162871
O           1.47735965536378    1.26366468916232   -0.87317162262436
H           0.85684466967713    1.79234971934183   -0.28929364568743
H           2.11683232590877    0.74302276009599   -0.18775913571751
H           0.85949114305726    0.45969641356234   -1.27225237553393
N          -2.05698521806262   -2.28671079362787   -2.82467995121873
H          -1.51104171090989   -1.64463858941474   -3.38556918507823
H          -2.78577335858642   -2.68712809573922   -3.40178234399240
H          -0.95362838112860   -2.91713775742161   -1.73181051839366
H          -2.48223809053174   -1.74513274831482   -2.07696265380695
