    26
        -50.45491416  Gyration_radius:  2.43196625234 Dipole_moment: 6.960
 S           1.63890072336765    0.37562103573561   -0.97113463115140
O           1.16412446846977   -0.94720951889614   -0.57055272688141
O           1.50627185807593    1.31036824720028    0.18828803661056
O           2.93060680867164    0.40542360673313   -1.55896979261267
O           0.58027727835755    0.92262078284957   -2.00093950936655
O          -2.05489571642210   -0.26984248089206    1.15500787835013
H          -2.73102813235067   -0.45939004686370    1.80576618453010
O           1.66015771514244    0.57666969191194    2.74420632317915
H           1.69596461225161    0.90777345866121    1.82247102888640
H           2.56402886017581    0.37160117186758    2.98772756479595
O          -0.15217199912815   -2.40331227378156   -2.34871086641665
H           0.42993003778245   -2.01260794778231   -1.66234291079635
H           0.36439544343397   -2.42279297712138   -3.15552359770250
O          -1.67056851035100   -0.32681909267139   -1.62820609653821
H          -0.26389051797531    0.40823959517712   -1.87887585585076
H          -1.35445183182783   -1.18100545454579   -1.99106839880276
H          -1.89410748819899   -0.50822519577129   -0.70232732399063
O           0.11070761311851   -1.43756490763010    1.80784823754690
H           0.55213190307221   -1.42084319853112    0.93208634285312
H           0.62041830970333   -0.80160398751424    2.34808660235636
H          -1.22601713209653   -0.78937457590723    1.44571710686807
N          -0.92058058165425    1.96273793288540    0.25070646048693
H           0.17816406325878    1.70347507757109    0.24781420676696
H          -1.43732702205543    1.16078293970902    0.69689652766148
H          -1.07667748301993    2.82847445616213    0.75699670093033
H          -1.21436327980165    2.04680367144710   -0.72096748170901
