    26
        -50.45234136  Gyration_radius:  2.54423138059 Dipole_moment: 2.492
 S          -0.55923897264352    0.24469405706152   -1.47852998151193
O          -1.02314696765410    0.61596186614505   -2.91003117576834
O          -1.66136805171649    0.46609311872360   -0.55500728636462
O          -0.11590628004258   -1.13303885057310   -1.50202314662777
O           0.56241658308852    1.15442429714010   -1.14944499379058
O           0.72256624065168    0.62185748182682    2.60164419103103
H           0.36026775649457    1.49145212029686    2.77680204827334
O           2.40148190747982   -2.12476260889206    0.84781746002875
H           2.52895194516032   -2.23906124283916    1.79234572791055
H           1.51444543461695   -2.49735457498689    0.63865192906823
O          -0.10125632793972   -2.90756172058833    0.34755539067243
H          -0.32016496124245   -3.75603292818088   -0.04090150041673
H          -0.16073060286482   -2.24729124490302   -0.39590334780525
O          -1.26684236514049   -0.78350453596877    1.74008120043129
H          -1.52742923656717   -0.30761688344265    0.91992228620547
H          -0.98479818721540   -1.66135709511834    1.44565257977511
H          -0.06085402020531    0.04449562044894    2.34676433899913
O           2.17845149294645    0.41675471215608    0.53029113042599
H           1.64756231977127    0.57283806908226    1.39820148256858
H           2.32721423521638   -0.58892262980781    0.50171469807001
H           1.49623915819986    0.72169595277227   -0.27588110189991
N          -1.64907949572771    2.94295307652089   -1.91975490001383
H          -1.96232470300232    2.37027875120678   -1.14069989403255
H          -2.29100901668050    3.71435091344971   -2.04908745330929
H          -0.73721282097997    3.31025803672838   -1.67932756511592
H          -1.31823503400197    1.55839623173399   -2.79085210678753
