    26
        -50.46405132  Gyration_radius:  2.41192642404 Dipole_moment: 8.298
 S           1.27323591842097   -0.20405446392381   -1.24753245106837
O           0.59375363581840    1.11361254727238   -1.32856025274354
O           1.32571798216006   -0.85509929753200   -2.53110393821303
O           2.71121138038450    0.04306376638391   -0.74845435373090
O           0.57083008230673   -1.01650154682395   -0.25512879417467
O          -1.78275056385271    0.26151329685478    1.70101545530238
H          -2.39624404751159    0.25704996029040    2.43690458250969
O           2.36127422214950    0.82739700774617    1.68785473753875
H           2.65608109104445    0.36626944733825    0.20486339215495
H           1.89563461453744    0.10838025724364    2.13844841408994
O          -1.12211098119377   -1.77167517935315   -2.65935891615318
H          -1.29746818606239   -1.78207261962057   -3.60281872227759
H          -0.15865317843923   -1.56185602928167   -2.57543960472390
O           0.20835177486089    2.28068127622172    1.04855107809052
H           1.68573479668218    1.53316237877486    1.57300073435197
H           0.38432060695873    2.01836217208426    0.12355786104233
H          -0.53979409827691    1.74302697783566    1.33883844974915
O           0.42640591106273   -1.14005990930768    2.27350204318918
H           0.44267610219635   -2.06285600680794    2.53102580720384
H           0.54780376706126   -1.13510539143492    1.27994745349215
H          -1.00185841159627   -0.27173949212941    1.97992048873027
N          -1.79807532938840    0.25327775998492   -1.07072849192324
H          -0.82674855231278    0.72357311280801   -1.20898641942973
H          -1.70747437488658   -0.64487682099614   -1.61323265184589
H          -1.89958292556305    0.08087265781633   -0.05586678702292
H          -2.55227126647093    0.83565414856604   -1.42021909387482
