    26
        -50.46438282  Gyration_radius:  2.63040932525 Dipole_moment: 4.455
 S          -0.34887292701766   -0.42294457011916    0.33301444213383
O           0.62989303604116    0.65800572908526    0.54186226847860
O          -1.65582091467742   -0.01851098460481    1.05974005033416
O          -0.65499415152508   -0.56996091152019   -1.08810247669454
O           0.12238932114289   -1.67386360241190    0.89501306237781
O          -2.28889450889835    3.13773673570508   -1.14424811345977
H          -3.08256824532821    3.67223986188607   -1.19762562149514
O           2.38596846036671   -2.06798083554149    2.14650597397742
H           2.43975861496091   -2.99628386402055    2.37838080950925
H           1.46218206037420   -1.91945652825716    1.82895224662170
O           1.37484683119149   -2.09458601165562   -1.69551912011002
H           0.58015433325580   -1.51006073873142   -1.64193866428211
H           1.11710926372055   -2.88007992442074   -1.20570788769363
O          -3.01772056353613    0.58258569443729   -1.43386033041961
H          -2.14837554072204    0.13170009805308   -1.46685585219624
H          -3.40271195862161    0.30634719275861   -0.59783383503768
H          -2.55807166744214    2.21896881925421   -1.38008314231380
O          -1.22319545905869    2.47497780037203    1.21018722100822
H          -1.59383583273397    0.98664656263639    1.20462021466451
H          -0.30550615360279    2.23187842089412    1.01522315246906
H          -1.58993575612267    2.84307046756273    0.37193924507666
N           2.79694430273725   -0.60982697479524   -0.03707711697684
H           2.39839872928072   -1.23216081099046   -0.79880159098544
H           1.98686652720744    0.05028784885387    0.20993529449795
H           2.94607490169199   -1.18901242313685    0.81932310817099
H           3.62991729734299   -0.10971705128983   -0.32704334767690
