    26
        -50.46570667  Gyration_radius:  2.62454349358 Dipole_moment: 5.298
 S           0.49053414879645   -0.06016643728712    0.49551285460888
O           0.59098413324049    0.66548340977074    1.73929341134691
O           1.74556721384519   -0.65147101103880    0.04148338055296
O          -0.48056383865984   -1.27133227525624    0.69835747486098
O          -0.10105279320109    0.74322719408803   -0.58700396265340
O          -3.17198028031794    1.43738230112708    2.12803353320023
H          -3.55298760952750    2.00238851607368    2.80196201779626
O           0.77192095013123   -2.67994183954139   -1.33971839358977
H          -0.00727344636593   -2.92781820894893   -0.83430138608663
H           1.26411999317226   -2.07741069633065   -0.73792515516312
O           3.11986094716712    0.06907141461086   -2.10204847231299
H           3.86850265861259   -0.52683743592519   -2.16580869647319
H           2.73428155151153   -0.08004545361781   -1.20943300467567
O          -1.04917180842878    2.66028473293876    1.08004592525921
H          -2.46016234140757    1.96802151848190    1.69480461757154
H          -0.36053487905718    2.14439972983230    1.53697116103216
H          -0.97662451846566    2.33495083228418    0.17342935885785
O          -1.51997003726328   -0.52711572692781    2.89419724754962
H          -0.98287341269886   -1.09148195372814    1.55650861558968
H          -0.72275810831588    0.01941429878424    2.96853229609943
H          -2.24650918064030    0.09464646393209    2.65611514688988
N           0.59252573417044   -0.45002890046972   -2.74528039182351
H           0.21377903634623    0.12271985871745   -1.90901623068553
H           0.54366017981192   -1.45303127279548   -2.42775028743908
H           0.08976066638287   -0.26856668029163   -3.60640899271844
H           1.60696505117306   -0.19674237841101   -2.80055206763899
