    26
        -50.45940113  Gyration_radius:  2.54038670342 Dipole_moment: 6.855
 S           0.47099294004464   -0.00935641254417   -0.95853366511826
O           0.46917168006915   -0.21138259089570   -2.41321726124589
O           0.27911304806308   -1.28458923448797   -0.26162183712730
O           1.62178941386793    0.71437966353431   -0.47644710876585
O          -0.81971895204043    0.82535305793711   -0.70536581288815
O           0.54811239856455    0.07181356561567    3.19250737716948
H           0.02580925236163   -0.64855356997707    3.54752073115758
O           1.58623912002673    3.02545700088761    0.85951189242984
H           2.28655242008731    2.93298838545745    1.50854070905004
H           1.67026000436356    2.25739883101515    0.25848286749085
O          -1.81052493901779   -2.61401607768073   -1.01037262606132
H          -1.03156586622936   -2.13697169874030   -0.61476590262678
H          -1.48471505868275   -3.48516657840568   -1.24401067376901
O          -0.69429534630586    1.81970303649234    1.59215981271715
H           0.02137805142208    2.47032057898922    1.42607761221492
H          -0.80001383203770    1.22011114170221    0.25541416370778
H          -0.30536745688516    1.17420391458574    2.22710605208970
O           2.25207924710467   -1.08676831419438    1.50259858168110
H           1.53502196362768   -1.36810227946764    0.90208997335956
H           2.67168193474194   -0.37081535389147    1.01328679435915
H           1.25378502550579   -0.34914874369290    2.64499943782140
N          -1.99246301804398   -0.59109792743067   -2.68291959492725
H          -2.36286472174694    0.19160583957358   -2.14530407420366
H          -2.40509656040887   -0.64933083263782   -3.60775473523942
H          -0.87916040235001   -0.41977244979180   -2.69224700230391
H          -2.10620035609415   -1.47826295195957   -2.11773572098086
