    26
        -50.46278510  Gyration_radius:  2.54851544464 Dipole_moment: 6.687
 S          -0.41408372817113    1.16669581206629   -0.04375665983071
O          -0.83498356105996    1.09552412205001   -1.42811542486279
O          -0.70851558650151   -0.07064797880836    0.68417635263280
O           1.00773560686984    1.49582638582362    0.10523710411693
O          -1.19131377101724    2.31080379332653    0.65838367822440
O           1.47708055200566    0.15350720319378   -2.27214767262548
H           0.54334586695573    0.42087300218682   -2.15122162266457
H           1.96002184462588    0.81301317386360   -1.76571981350742
O          -3.32335947895522   -0.49876393745228    0.59245786604553
H          -2.34429362456481   -0.43280659133976    0.60595555629619
H          -3.59849625189276   -0.57373490312272    1.50769105276108
O           1.82237202846406   -2.29457977020804   -1.28421983488690
H           1.72925020714773   -1.39344919264913   -1.67697485583731
H           1.39757976798301   -2.89139061101505   -1.90198221627877
O          -3.31238359521510    1.85637788493543   -0.70884313875466
H          -3.58291885258202    1.00970344474397   -0.29711747147735
H          -2.09337479416767    2.28706547843895    0.22106265029182
H          -2.68489193544603    1.60537587958947   -1.40388809790828
O           0.92320222566516   -2.06746311942067    1.19809809275598
H           1.23813112426300   -2.31596706577830    0.29610113745835
H           1.83891047580700   -0.99116838515326    1.53555490813474
H           0.15584869475765   -1.47391800503764    1.03979460150342
N           2.40099786265639   -0.03359399377037    1.62790590638822
H           2.42874644829248    0.29063210475872    2.58851596240136
H           1.82603841192744    0.65898257848602    1.02045361054074
H           3.33935404209287   -0.12689729971007    1.25259832913301
