    26
        -50.45793255  Gyration_radius:  2.4609039443 Dipole_moment: 5.066
 S          -0.11954737539433    0.32226095256617   -0.95596803945701
O           0.83060168985879   -0.77194177699385   -0.97100749508388
O           0.69262506594554    1.58329002186417   -1.42222997180682
O          -1.26486427334125    0.14581681475588   -1.81032515517098
O          -0.53211512605433    0.63699347413567    0.43286770233634
O           0.82140014083612   -2.03216372213539    2.53970891936700
H           0.60431855625152   -2.20520023906711    3.45783095018157
O           2.96211982312766    0.34723141041708   -0.02191202820774
H           2.29570286082809   -0.21020645270200   -0.49494388140923
H           2.94537230095345    1.19123535436456   -0.48155242806751
O          -1.28302757214126   -2.53330695297719   -1.28679550945846
H          -1.53592086115177   -1.66633356913099   -1.64221308468860
H          -0.32025836461784   -2.52916099937739   -1.33086715481466
O           1.39275496685473    0.35124604940655    1.96990693433496
H           2.16187030052645    0.36048884414244    1.28354253174060
H           0.54214389180502    0.54815233624803    1.37122314502717
H           1.24877156661181   -0.64769204932491    2.25990853471328
O          -1.42992408070858   -1.78511562727536    1.29085228398206
H          -0.04977125457348   -2.06352190242177    2.03539090084716
H          -1.32593309122887   -0.85167557919340    1.04159975304400
H          -1.49355436661812   -2.26192532448510    0.43542518371379
N          -1.51597559266875    2.94130454725472   -1.54822171476965
H          -1.85406688657893    3.20802051184376   -0.63270176152585
H          -1.89971536945797    2.02488277093706   -1.76892206235341
H          -1.85652929817211    3.61159905873709   -2.22552711697437
H          -0.01647765087556    2.28572204842922   -1.52506943550153
