    26
        -50.45437406  Gyration_radius:  2.57008699848 Dipole_moment: 1.870
 S           0.11198515789767   -1.16641923511386   -0.33034400500423
O           0.74694939047491   -1.55576943052957    0.91372992027903
O          -0.28453311146955   -2.42175857257826   -1.10139313590190
O          -1.14399896221244   -0.41365908151101   -0.04304162502481
O           0.98530955989768   -0.34675576504616   -1.16383214418510
O           0.02595926478346    1.23534899633549    3.48634922689880
H           0.34463785204899    1.99533481440927    3.97684895939842
O           1.70534328714838    1.69316148699826    0.25062472272063
H           1.54510265508618    0.96982827538076   -0.41260531915672
H           2.14764980714766    1.25366148529087    0.99528541313138
O          -2.83264347435391    0.00111659884441   -2.09351749881072
H          -2.24048063577648   -0.10414624362473   -1.32202482253366
H          -3.68064624154020   -0.35246894744810   -1.82082784115311
O          -0.66636843034899    1.73728504144901    1.05024196694033
H           0.31814754870593    1.87212166906990    0.68703217268115
H          -0.95545745142317    0.80655960878455    0.58142678869608
H          -0.55651436239534    1.54655604995017    2.03861894266087
O           2.12940992383350    0.00507380626781    2.39325438371562
H           2.78124793727372   -0.53711423940852    2.84009699805554
H           1.60520565036583   -0.63006283974324    1.82290810701081
H           0.81630313948318    0.71141543453740    3.22223245570002
N          -0.60001868481634   -1.25151255503054   -3.30864964550524
H          -0.51086919222422   -1.64063127576612   -4.23690473920433
H          -0.45117088942229   -2.05280165846363   -2.07926930592206
H           0.14937044103198   -0.59182086509291   -3.13035413507890
H          -1.48992016919744   -0.76254254820365   -3.21588585054537
