    26
        -50.46954187  Gyration_radius:  2.39872656467 Dipole_moment: 4.983
 S          -1.40265563454710   -0.62526679347800    0.41650144747513
O          -2.81564783094153   -0.65850045416030    0.15756078224480
O          -0.91970581306604    0.72238973795302    0.72594303551948
O          -1.06597324442975   -1.53095302818593    1.64190854323046
O          -0.63066889484846   -1.19129555527458   -0.70977811526551
O           2.69815258660217   -0.21492737402710    0.77607370701210
H           3.63468372225289   -0.36992597574795    0.90552295447042
O          -2.75709875570818    1.54060640903681   -1.29734639586547
H          -2.57034036955414    2.17187475684981   -0.59715655944370
H          -2.94148617401785    0.69796472481248   -0.82068728088407
O           1.18475204785756    1.76025116161513   -0.51177161445485
H           0.41308779784818    1.52684714385964    0.04672453112286
H           1.88707657509074    1.16834709598093   -0.19983772362932
O           1.43273380060221   -2.47290339790757    0.26973234615575
H           0.65287991696586   -2.08261635318229   -0.18634601101461
H           2.29925517580055   -1.08740274255220    0.52673422784811
H           1.07535361237142   -2.91020976018628    1.04621874356568
O           0.72159739328996    0.03353348233351    2.68777401164921
H           0.16657162340485    0.68636871063092    2.23214150679890
H          -0.37006146846688   -1.04302629173152    2.16361718729788
H           1.53733342503894   -0.01721311853993    2.15601005428298
N          -0.43529409544998    0.79193862711148   -2.33493718104536
H           0.33431744631658    1.31361228070618   -1.82895175295167
H          -0.28227210180821    0.70636754142582   -3.33314552573161
H          -0.47915143300996   -0.14795447958691   -1.83416690579472
H          -1.36743928760221    1.23209367225567   -2.09833804256853
