    26
        -50.47166721  Gyration_radius:  2.38844572176 Dipole_moment: 3.167
 S          -0.21206115834462    1.24936672116588    0.64213098762303
O          -0.83280115465171    2.09193645764584    1.78764539013681
O           0.43547507665511    2.16308165804346   -0.28629367618986
O           0.74530699093876    0.32508038542184    1.24048530124986
O          -1.30169007406162    0.52640099894975   -0.01974439379717
O          -0.47757447293067   -1.97301454371385   -0.53801620861018
H          -0.85269959872385   -1.09307650387013   -0.34421662092025
H          -0.29402850401457   -2.35586606324501    0.32755443633697
O           2.69872162688304    0.35240096340260   -0.56065286276870
H           2.72162669148600    1.29374112274627   -0.74812681968083
H           2.08209383503645    0.26952879754849    0.19386135309814
O          -0.16262389696796   -1.86197651621107    2.34356340483222
H           0.25905599763635   -1.06359696908250    1.94767785495916
H           0.42053184087675   -2.15232092876771    3.04638283611757
O           1.25632825146234   -1.01867076047957   -2.32620368014897
H           0.70587730438654   -1.57837937813557   -1.73189347259419
H           0.36709245372617    0.11697323440746   -2.53507085232405
H           1.95078298364996   -0.62967692201373   -1.74399687927754
O          -2.21113419330830   -0.01692809633475    2.47652329492440
H          -1.62099100700655   -0.77197466168868    2.65395048834527
H          -1.39471789225332    1.43449924203130    2.26932360710281
H          -2.35495431165188   -0.03784801960284    1.52014391808518
N          -0.32482314082629    0.98798222136072   -2.47194646640720
H           0.05733200386433    1.61947108065900   -1.70594624602655
H          -1.20922627203712    0.65324654328418   -2.08132066914733
H          -0.45089938981533    1.46961993648555   -3.35581401494869
