    26
        -50.45444099  Gyration_radius:  2.55415063949 Dipole_moment: 4.693
 S          -0.39508063095948   -0.73735022259233   -1.14508932931791
O          -0.35814899694455   -1.69753834970819   -0.07930151853393
O          -0.34053719353237   -1.46674681273046   -2.49343535338996
O          -1.54163173243981    0.14318607672272   -1.11323344709022
O           0.87941080344223    0.10042310481953   -1.16254123717029
O          -0.68167422475283    0.71370528524319    2.59729455038408
H          -1.07129026233711    1.31348655586418    3.23507621554807
O           3.12210582303950    0.13900065928354    1.55727722587903
H           3.53648882889626   -0.25483099425881    0.78791799243841
H           2.49151107655378   -0.53749938510589    1.90486385051240
O           1.09285198928804   -1.44270955712559    2.22755852407076
H           0.50826715245183   -0.78953467018621    2.63691358391379
H           0.64773794599018   -1.70013864958021    1.40311718055955
O           1.09690494057437    1.61495916875682    0.77678223617058
H           1.94998789099356    1.24176101738528    1.12762521813786
H           0.94404907306185    0.80084478336367   -0.33756862901333
H           0.41509434676298    1.35897726891245    1.43692752581663
O          -2.54686614093341   -0.56529141951411    1.25503116154312
H          -2.18267789563387   -1.45569579570246    1.21261331288839
H          -1.43665480773840    0.26247739354457    2.13462091055104
H          -2.37526286607006   -0.19670864451091    0.36760267060703
N          -0.75727193634026    0.71729670961349   -3.76876592566020
H           0.07487559562362    1.28907801470643   -3.82705383482990
H          -0.46752227254756   -0.71126334622051   -3.17175425863027
H          -1.29515006556895    1.00861191963690   -2.95704563753809
H          -1.30951643088382    0.85149989937684   -4.60543298783040
