    26
        -50.46066643  Gyration_radius:  2.40227940861 Dipole_moment: 5.229
 S           1.20970508077861   -0.55253593338764   -1.06192261834556
O           1.17150067994019   -1.47611736615879   -2.18673185206185
O           2.50863365633194   -0.07988299273763   -0.66649119236876
O           0.25933679349572    0.55778823431503   -1.28219879379896
O           0.59895288164579   -1.38255724360898    0.12609798078927
O          -1.65381780346241    0.66850314626024    1.84812109497845
H          -2.01796517437885    0.08926054958603    1.16984076925554
O           2.31525335899363    1.72616606608688    1.21959385664289
H           2.42394480451058    1.11273557484886    0.45187628410337
H           3.20306543830620    1.94243096895985    1.50912324499085
O          -2.04642980502665   -1.68237826061820    0.01982762012330
H          -2.35296456983625   -2.35517359272274    0.63018058220647
H          -1.07086198518183   -1.63175720548508    0.13226964609303
O          -0.29894899474408    2.51410828617065    0.46527551280022
H          -1.31000094863183    1.46298109982901    1.37847175881731
H           0.55952401924218    2.62373930038685    0.89241089540596
H          -0.11849886148274    1.90951657789112   -0.27805413486858
O           0.79051673486860   -0.21598224468675    2.32386661434276
H           0.76252692188734   -0.92757289228305    1.05921276020138
H           1.35446057373527    0.55824238860108    2.12489699499587
H          -0.14226299789708    0.11924948899158    2.34842603253301
N          -1.28681120943729   -1.01596476598078   -2.48362389735915
H          -1.86960963199390   -1.45760253411859   -1.75470458098652
H          -1.76569533770162   -0.91024173146875   -3.37083816085319
H          -0.90355316316463   -0.10511866333197   -2.06867668580484
H          -0.32000047085552   -1.49183628548973   -2.54624974189118
