    26
        -50.45974658  Gyration_radius:  2.50419886454 Dipole_moment: 6.043
 S          -0.78782525814426    0.36349576154178   -0.50320192650575
O          -2.07307287463597   -0.18912876452247   -0.92057511548694
O          -0.09400442783804    0.98468425476624   -1.63719396421735
O          -1.07356962926065    1.40657157562138    0.57499789654724
O           0.06334501209143   -0.68627781463950    0.07960120212596
O           1.07520444735547    0.64875282773197    3.58388842256886
H           0.80561616911873    0.97200362483681    4.44469859309748
O           2.29062884261518    0.93413704823990   -0.41971417262114
H           1.54178194319693    1.07413176536889   -1.02836050074963
H           2.13612487959438    0.05822593029058   -0.04981698051911
O           0.31467404786153   -2.56400071850809   -1.73984978911123
H           0.31122209530593   -1.89156851219378   -1.01472949607088
H           0.00602881555558   -3.37844882714098   -1.33864257265293
O           1.05692540542698    2.30815675159239    1.49340185320481
H           1.70041276837606    1.94867697579094    0.83824575475346
H          -0.18390343792268    1.85313933269455    0.95632580704439
H           1.17016850408159    1.76634771296963    2.31033252674793
O          -0.99373457921854   -0.70284252110892    2.52088514537182
H          -0.57831040702062   -0.85491977976236    1.64935878814972
H           0.35524055160619    0.05533495217606    3.27052523586746
H          -1.67190816133202   -0.04258018874559    2.35351106181717
N          -1.08711525006212   -0.83399190855590   -3.15283883017488
H          -0.52787864632638   -1.67726467228971   -2.86731000056041
H          -1.46944299699367   -0.87563299495115   -4.09107383615695
H          -1.79684443525000   -0.68457620471711   -2.35641359811389
H          -0.48976338814259    0.00757441352882   -2.95605150435817
