    26
        -50.45974657  Gyration_radius:  2.50415554457 Dipole_moment: 6.042
 S          -0.67816048488799    0.72438805048237   -0.14156973902299
O           0.32504560011470    1.81873468181195    0.21637748630672
O          -0.17207994505198   -0.55743066834574    0.37516854615309
O          -1.94346882730395    1.07312653533114    0.49813455512913
O          -0.83622198722469    0.63893083646522   -1.59789773948121
O           3.42866179640187    0.19322760884683    1.61972666220921
H           4.00794017503629    0.70221671413621    2.18852022036471
O          -2.04767191681965   -2.34680320996497   -0.05117764012658
H          -1.27281611704720   -1.75360681856928    0.10879228115191
H          -2.26071865778331   -2.72936980997854    0.80198004730393
O           1.40955791046060   -0.78314386577198   -1.92241329020642
H           1.24115821816084   -1.31452776980319   -1.13680250357362
H           0.59186486446865   -0.26566341575468   -2.04271698213802
O           0.93445421630874    0.36134898440273    2.61341984276566
H           2.55296534289284    0.16361961849871    2.06813216838863
H           0.67480953981262    1.27954334293935    2.49742468363740
H           0.50009703780797   -0.11193278362120    1.87686275078443
O           2.57849044574481    1.25411526881804   -0.67714768081948
H           1.29183296154353    1.63602839403984   -0.19412871765268
H           3.01449245717087    0.85381477044819    0.11243672784278
H           2.35111037228460    0.50117012513337   -1.27223900444195
N          -3.20246775625724   -0.28286365197840   -1.21819328848185
H          -4.11035042964449   -0.17123140061221   -1.65577963813548
H          -2.99338759964864    0.36680511306764   -0.38439441991336
H          -2.99875471623411   -1.25287783228916   -0.86765114611445
H          -2.38638250027480    0.00238120231322   -1.81486420188519
