    26
        -50.45803548  Gyration_radius:  2.54946074108 Dipole_moment: 6.264
 S           0.44609549851089   -0.51460049720421   -0.90275667976089
O          -0.42481647356806   -1.14845973392368    0.23357043118242
O           0.37439052487714   -1.48023162665468   -1.99620681774685
O          -0.24689441648651    0.73201766676329   -1.27116468565112
O           1.77583112083447   -0.28531727410861   -0.39218315001532
O           0.55890471638397    2.49024093873772    2.01750596410902
H          -0.18508478580519    3.09197387455639    1.97384372741386
O           2.68194609125114   -0.77293260072530    2.07552680892068
H           3.29094001695304   -0.05236342534004    2.24911598834108
H           2.45335573391408   -0.71267419541801    1.12604743514898
O          -2.96314734085681   -1.85025375404865   -0.37074340054548
H          -3.09233949372432   -2.77824654926269   -0.16734810466450
H          -2.09523529499017   -1.60698101933397    0.01117788939988
O           1.59591622392259    2.44559132765957   -0.43103422655298
H           1.00796853274599    2.54672452710797    1.13879740445678
H           2.26228636255761    1.74980748631353   -0.40192833754241
H           0.83080715398976    1.99126985768128   -0.83433996613903
O           0.11658264800456   -0.10810389952933    2.43596069548222
H           1.03406845363853   -0.44335339213233    2.54284284676109
H           0.21505563622325    0.86800360840788    2.33314136972573
H          -0.22138641129102   -0.70022641346863    1.16238999377797
N          -1.93822156386613   -0.69408317856734   -2.54925677262613
H          -2.58827717046157   -1.15304925604263   -1.87558401019510
H          -0.99543282505994   -1.24201623589266   -2.52463365343675
H          -2.33620221320450   -0.55776997869074   -3.47151262054562
H          -1.55711071449951    0.18503376311224   -2.11122813931373
