    26
        -50.46438035  Gyration_radius:  2.41488803643 Dipole_moment: 4.126
 S          -0.10613579110572    1.49757370765499    0.64695232764986
O          -1.53247708746642    2.08196495094490    0.79391877271702
O           0.85483086347793    2.48562683772920    1.11530356799287
O          -0.01762504261083    0.28257920877334    1.46279938078669
O           0.10608345925779    1.18343374310859   -0.76586755981014
O          -2.00241874673800   -1.85986136100099   -1.11427131053669
H          -2.70882026974719   -2.37985280188451   -1.49984730908417
O           2.25776750494787   -0.32256714277361   -0.83035558668781
H           1.52650394695208    0.30979755601565   -1.01358849979999
O          -2.60154771873262   -0.26796002045526    1.04815400182506
H          -1.76990293458816   -0.37937598511205    1.53325615915536
H          -2.13435634287138    1.28995672017546    0.83856520731231
H          -2.51377843512182   -0.84625144778988    0.26535379694324
O           0.51230913424117   -2.01696171110667    0.19592778224266
H           1.77314115466350   -1.14744837385124   -0.58187218456551
H           0.28784138041688   -1.24497638431404    0.75206912549116
H          -0.28835684723372   -2.18629215156580   -0.31964392220842
O          -1.41584512538277    0.20042894393154   -2.66280415630782
H          -0.91477119236283    0.67830926256999   -1.96404030313850
H          -0.80885445659579    0.11075728163925   -3.39976253018130
H          -1.81295865810179   -1.12532524082661   -1.74853613553728
N           2.70177068502621    0.73090832020197    1.47474998216812
H           2.65870919838074    0.24332618645304    0.48500832731974
H           2.27567861886667    0.10348734424403    2.15453361741235
H           3.64074427814418    1.00392679368908    1.74746604153811
H           2.03246845431427    1.57479576344828    1.38653136730190
