    26
        -50.46438030  Gyration_radius:  2.41494482181 Dipole_moment: 4.126
 S           1.37805675817597    0.87848181945810   -0.05363580493878
O           2.51226468831722    0.32306575668214   -0.94957461202692
O           1.81943966275350    2.13469591604092    0.53471830450346
O           0.19790786233061    1.07559927752398   -0.89510535748558
O           1.09976197959946   -0.10141668053123    1.00092017790858
O          -0.88631748716156   -2.44552407504557   -1.39349326332406
H          -1.11154340543132   -3.21205832089762   -1.92239956431458
O          -1.79812988239544    1.43264387012616    0.77555175426729
H          -1.17416123625101    1.43916981360280    0.01478427459139
O          -1.36230422994140   -1.15233462664416    1.08907079143669
H          -1.40686600668964   -1.70224488503887    0.29457637057856
H          -0.43147513385880   -0.85669031203113    1.13139667659365
H          -1.91781695022976    0.46684982066945    0.94881903344867
O           1.73592305163901   -2.13041336691874   -0.62117597551989
H           0.84742878084802   -2.33154663847009   -0.97471485716757
H           2.34053873229326   -0.65594203319025   -1.00899665529074
H           1.57391572222029   -1.75584303581913    0.25795158570343
O          -0.86941350933341   -0.26215414783544   -2.88337703322204
H          -1.67636451688237    0.22460692579091   -3.06070561683913
H          -0.37666533051105    0.27449444830416   -2.22244204526790
H          -0.92258158509363   -1.66385857492893   -1.99790109398076
N           0.08206995774797    2.02524728818079    2.42910031035155
H           0.86606850323955    2.20606196085786    1.70753609152807
H          -0.81751719410800    1.84357509644481    1.81527297093522
H           0.32585864506241    1.15440425814354    2.89759054615887
H          -0.02807788627913    2.79113045558465    3.08623301138280
