    26
        -50.45526235  Gyration_radius:  2.41590825104 Dipole_moment: 6.814
 S          -0.09881536498709    1.63041507990418    0.99609831143837
O           1.17974361312725    2.27151273310230    1.28073971033184
O          -0.34272256098893    1.47792674496079   -0.41648278978927
O          -0.15592831394953    0.31430697392709    1.68262020469747
O          -1.23077340132588    2.51123070949567    1.60639689353864
O          -2.17088159165889   -0.86435678870485   -1.56215666281586
H          -2.85778754408778   -1.01913359421408   -2.21155435915176
O           2.03015591748757   -1.30576923914713   -0.97447504443291
H           2.46432138359641   -2.12351599353351   -1.22250996148587
O          -2.78687544726402    0.50263724960874    0.85839036622603
H          -2.10883079477070    0.06001994741163    1.38300353591805
H          -2.03757099301711    2.01331340766116    1.35236385355544
H          -2.64469488298532    0.19347739425877   -0.05314286943641
O          -0.24659077176250   -1.84365862800368    0.12687763418845
H           1.12508196519333   -1.56557196329507   -0.61658932542435
H          -0.28463857872345   -1.08001119938543    0.74005347204075
H          -0.99485227691418   -1.70640235999224   -0.47768126128099
O           0.05968536924951    0.14158794290786   -2.64711983244211
H          -1.41086198549662   -0.45678724283761   -2.04532664491456
H          -0.03799026036535    0.82602668373709   -1.95802748505645
H           0.84681869414637   -0.34868162508201   -2.38345087540509
N           2.39624694200112    0.05096507830121    1.31264578849835
H           2.45734805169508   -0.41574445928341    0.37259850854916
H           2.17502817764489    1.10369866260572    1.21351857553526
H           1.47958110747312   -0.22463863350984    1.73699920810489
H           3.19580354668095   -0.14284687089406    1.90621102901337
