    26
        -50.45479406  Gyration_radius:  2.47171902019 Dipole_moment: 5.880
 S          -0.03195926958539    1.03486599687788    1.83120430041322
O          -0.69262926522030    0.97272656533019    3.08790713013175
O          -0.89053680466409    0.86930920043949    0.67193211807815
O           0.74492553903422    2.34395413607750    1.68772714145925
O           1.06058962200229   -0.05907490207299    1.77574709467440
O          -1.24328585184981   -2.52845948469832   -0.26182648442885
H          -1.44201771695686   -3.46410570941955   -0.20658248617360
O           0.69857051728504    0.36705924731617   -2.48980047171830
H           0.80665802813935    0.13208887518029   -3.41233433983778
O          -1.73817340221483   -0.12914950197643   -1.68993686999659
H          -0.27089129671209    0.25510519921268   -2.28361380649820
H          -1.73762792158391   -1.05141585525047   -1.39410160532114
H          -1.63432207060916    0.38777216191382   -0.87417127101920
O           1.19920711150657   -1.32913061530229   -0.41620431927413
H           1.12877708748262   -0.55210363360310    0.88042311673210
H           0.37509812061657   -1.85392092631371   -0.39239487889742
H           1.10570971393708   -0.72254892537897   -1.17740252202319
O          -2.13620130665798   -1.18202201813020    1.86354866106448
H          -1.89885282925335   -0.33684617424299    1.44499271821090
H          -1.59419496113074   -2.11954131081938    0.56202656355702
H          -1.87065226039210   -1.07205371481310    2.78040625824906
N           2.05408129863945    1.99881364409914   -0.47678012541939
H           2.78474045830657    1.33532650723858   -0.25105592905770
H           1.27481187497855    2.27217623817862    0.78389498177380
H           2.47986432484927    2.84109268238933   -0.84105430696364
H           1.46831126005651    1.59008229776576   -1.20255063771638
