    26
        -50.45526237  Gyration_radius:  2.41579213288 Dipole_moment: 6.811
 S          -0.11345622556246   -1.34305605206446   -1.35760656974174
O           1.07181884566612   -2.17772975477876   -1.51656579405394
O           0.22121881609874    0.06227152080726   -1.70357903438889
O          -1.18550670512822   -1.82094160636970   -2.38322494252008
O          -0.67498788687707   -1.42045008231707   -0.03213972961430
O          -2.31943234578983    0.99059242486553    1.23923388908112
H          -3.11259299464611    1.15892745323382    1.74923826394723
O           1.90698672308722    0.61955438376767    1.65955126003134
H           2.39343800323662    1.25934264269802    2.18182831312620
O          -0.62865990625817   -0.66639359773714    2.48829304107388
H          -1.78227081124493    0.34190781780656    1.75683635945557
H          -0.66218790030067   -1.16506643551089    1.64982080631191
H           0.26890404050848   -0.31577596222717    2.51909876332922
O          -2.52640865011049    0.29081837367111   -1.51277010317194
H          -2.56753380769125    0.37707300776697   -0.54448603415993
H          -1.67563333544610    0.67049440755644   -1.76347512139121
H          -1.93679116427509   -1.21965942541030   -2.18981272357087
O           0.10001206416246    1.84211500416410    0.27181131502685
H           1.17620035703065    1.13391411207124    1.19460289600525
H           0.09171142324064    1.23977945643088   -0.50132686514659
H          -0.78772122141388    1.75422131984964    0.65703980732502
N           2.60636624761601   -0.31126673231231   -0.75935836663405
H           1.88423512838705    0.23424941923780   -1.28585242300723
H           3.55008442601907   -0.18372464944424   -1.10913538619201
H           2.50576461557509   -0.06170381876031    0.25686507817967
H           2.19644227411412   -1.28949320699420   -0.96488669930424
