    26
        -50.45731602  Gyration_radius:  2.44445194568 Dipole_moment: 6.849
 S           1.43682509369448   -0.89286009894623    1.06665767358839
O           2.03925455236152   -0.39975190998043   -0.15947112854196
O           1.88443340485029   -0.18362768274670    2.24508913724438
O          -0.04525812606251   -0.83537988047036    0.98761278144259
O           1.78830773302618   -2.40413003948883    1.21492787759949
O          -1.02785845651920   -0.96892825283258   -2.49011258824015
H          -1.59454763617424   -1.21372034695245   -3.22246313813422
O          -0.83730885801444    2.56907195738704    0.14119157147822
H          -0.72107035923780    3.48874243735105   -0.10104374716644
O          -2.25543012543692   -0.04970933012938   -0.31163948583514
H          -2.09359585880674    0.89871653560197   -0.25566914454360
H          -1.61650876585589   -0.70650664348217   -1.74431292777886
H          -1.52628189110413   -0.46792585506050    0.18326943822809
O           1.04015716138440   -2.56696380486333   -1.34618814475044
H           1.48522443214723   -2.77997212433185    0.36338542251816
H           0.21968594602023   -2.22112717638193   -1.73087100214070
H           1.60882979808992   -1.78574539661802   -1.26135731874618
O           0.51836431297960    1.20800873416126   -1.58460008781178
H          -0.30517666290328    2.04596936534555   -0.53698958634213
H           1.17815722884930    0.68891061111835   -1.07553443143847
H           0.01457015063715    0.53972786909776   -2.07579955466348
N          -0.25952704520261    1.25451634825122    2.37920731121700
H          -0.42971330189579    1.97025256504161    1.62936624958465
H           0.75310259928591    1.09849115143982    2.57880190394988
H          -0.81503430855298    1.40894078368387    3.21318813549598
H          -0.43960100755349    0.30500019380519    1.89335477378849
