    26
        -50.46185353  Gyration_radius:  2.44956335545 Dipole_moment: 8.678
 S           1.89777873043099   -0.56565767079778    0.99088523123106
O           3.23839632749349    0.25567423230525    0.91587736378419
O           0.93013438526944    0.31675401409298    1.68646688879724
O           1.43799952598046   -0.76420688047290   -0.38434676022540
O           2.14654062386171   -1.77811760221155    1.70117460849074
O          -0.73281992982234    1.42390031615969   -2.36384396543179
H          -1.41682495311289    1.63749300993028   -2.99917540488966
O          -2.28337854075094   -1.14404178149982    0.39671259758011
H          -3.13860271243545   -1.49128229957688    0.65414397685040
O          -0.55255834988980   -1.80448818574695    2.23830672535057
H          -1.63251959013388   -1.49439449098299    1.06648032031470
H           0.15820688532368   -2.44544642081027    2.11883314376103
H          -0.06436665920105   -0.95885146185875    2.27565720781678
O           1.68151890647036    1.79467729104690   -0.83348679752976
H           1.56269973289807    0.82290804610886   -0.82761091414497
H           1.35295353294823    2.08628467241325   -1.68831942790479
H           3.02306485770908    1.05859978138881    0.42951943012910
O          -0.68219028126627   -1.15877016723198   -1.94178819482961
H           0.17197165759236   -1.18547322348370   -1.46876647479439
H          -1.34568201414282   -1.33367632844081   -1.25972701870887
H          -0.66643527838907    0.42844378033078   -2.34939216224657
N          -1.03372920563651    1.28101778632140    0.32469683958692
H          -0.81338064775807    1.50106410113717   -0.67465305975194
H          -0.13503092819892    0.96341346465475    0.83990349161218
H          -1.42394569467484    2.08810407355820    0.79913601077438
H          -1.67980038056342    0.46607194366193    0.35331633437681
