    26
        -50.45450929  Gyration_radius:  2.45174033125 Dipole_moment: 5.292
 S          -0.24230988352326    1.03967080460788    1.79465665178069
O           0.50895637338801    1.96562110604534    2.56216391733089
O          -0.26474811429890    1.28070250969766    0.36328824344966
O           0.31335100369157   -0.36890515967879    2.06376700382160
O          -1.70721410044180    0.97181893435261    2.27814639236556
O          -2.06083816962896   -1.14398244811033   -1.45244783663522
H          -2.52193109868184   -1.57180181102692   -2.17483095965071
O           2.04697635765230   -1.13875833979764   -1.15929430703878
H           2.82007795683119   -1.68891447170854   -1.29136815338565
O          -2.99126407645545    0.92625717696577    0.04590861999185
H          -2.79944613370873    0.08710314585265   -0.41921325154839
H          -2.30804958262495    0.91574698434662    1.47376607742027
H          -2.40147352128961    1.57579564377457   -0.35101205944166
O          -0.10443210401155   -2.05011903300378    0.22696961060482
H           0.08120629080957   -1.06917176743496    1.34708001403377
H          -0.89463758689428   -1.82785273970777   -0.29855281445759
H           0.67056366509215   -1.83654434908916   -0.33358772580946
O          -0.05881851927181    0.36188865287977   -2.16610924266784
H          -0.08333224766943    0.86234112804455   -1.33172567534602
H           0.74503150007423   -0.17517980257958   -2.09971891754090
H          -1.34547105755986   -0.57274312384516   -1.85502318893979
N           2.59596557856805    0.77187363915676    0.61853361045467
H           2.30981503755867   -0.42324619548290   -0.51060703467787
H           3.38489125936668    1.40722142815256    0.59181573226961
H           1.75138535117875    1.32783704263616    0.52757966230552
H           2.55574580183198    0.37334106496898    1.54981564131706
