    26
        -50.47166716  Gyration_radius:  2.38843635308 Dipole_moment: 3.169
 S           0.04862819267386    1.35567447406685    0.42330286472402
O          -1.08704218192944    0.48675631093938    0.74455258353496
O          -0.18051187576961    2.05665596204729   -0.83059135751189
O           0.16431566027483    2.41624173817791    1.54995762460377
O           1.29698336767266    0.60085456891220    0.39545634150663
O          -0.39875784076869   -2.05055482649635    0.21311719396115
H          -0.69911414782814   -1.15626537032140    0.46345286732866
H           0.34402699690736   -2.23147074659198    0.80044121806254
O           1.65344030200199    0.26910396951974   -2.21661821543613
H           1.66894770771268    0.34205545417563   -1.24148467175634
H           1.40903864502700    1.14724038287367   -2.51813432133590
O           1.63359645532632   -1.30961853776660    2.14509118301839
H           1.58399401568866   -0.60881519965309    1.45348817184749
H           2.56448940063571   -1.43143612187399    2.33686579467403
O          -0.34436572150725   -1.47894676678700   -2.39163638387339
H          -0.30548660822880   -1.90504336024469   -1.50486549721318
H          -1.32852703448520   -0.43171219545809   -2.14984830334362
H           0.49122114548094   -0.96040882601556   -2.46546713706299
O          -0.13087812250516    0.48362454388035    3.28191764216530
H           0.13874447291225    1.86930957748838    2.37469640269696
H          -0.83724554519963    0.25230908869206    2.66283388432658
H           0.54729870257168   -0.20385966408932    3.15088745717603
N          -1.95103078243886    0.42003761224635   -1.79142032787793
H          -2.67538394503968    0.69547352201852   -2.44607509829381
H          -1.27586106326344    1.20978925277650   -1.56315920371854
H          -2.33052018593196    0.16300514744734   -0.87676072222362
