    26
        -50.44586023  Gyration_radius:  2.58720070157 Dipole_moment: 4.992
 S          -1.51476994698274   -0.02075504525943    0.66815501695115
O          -1.03796860535731    0.38825403718430   -0.63095843731153
O          -1.48064079115401    1.02550159887074    1.65681748003110
O          -2.98723706184799   -0.51777879189749    0.49316848127494
O          -0.74929247478912   -1.21609701316522    1.13919305380895
O           2.23741801538000    1.10420916980776   -0.24078630239292
H           2.98652184861902    1.31927567678767    0.31729697127574
O           1.20820093669046   -1.99313603531465   -2.32528331912888
H           2.00294796025163   -2.21612077063165   -2.81289304263054
O           0.72201493294673    0.55164700658711   -2.61342662095616
H           1.42030744211129    0.94608585391393   -2.07682655723027
H           0.94823577661960   -1.06892526491954   -2.60115772985747
H          -0.06211614839666    0.55543188727636   -2.03071038197996
O           1.47387170106047   -1.31813730200097    0.11867255547276
H           0.48565850448959   -1.29664829820216    0.58047360824965
H           1.34515244542883   -1.69412322382498   -0.82881656842817
H           1.76094689214486   -0.34273423228110   -0.00364544015466
O          -2.74076927112466   -1.89555801204801    2.75111916925271
H          -2.89313907795354   -2.83848893476626    2.65406345002335
H          -1.84307365725347   -1.72438067520875    2.41108134530634
H          -3.18991372407645   -0.92743099239404    1.35609834814258
N           0.34753246430254    2.72463148205909    0.43827799798699
H          -0.31464653171293    2.13900349098140    0.95919008851586
H           1.47961938940545    1.75112996150377    0.03204010542994
H          -0.13870493711932    3.01247066714034   -0.40223851167929
H           0.53384391831142    3.55267374981163    0.99109525002230
