    26
        -50.45364259  Gyration_radius:  2.46023501953 Dipole_moment: 5.000
 S          -0.03384982138016    1.53392883948869    1.46274917823990
O           0.25572033477233    1.43100912149052    0.05211719246054
O          -0.34190011805514    0.10899170132855    1.99078240182745
O           0.97288944321966    2.12433153363280    2.26848391371867
O          -1.36343125991012    2.29344761171990    1.65333158356666
O          -1.93810839043451   -0.37673575834466   -1.94656737902740
H          -2.43328531003743   -0.45957240698807   -2.76210636202045
O           1.73678599797015   -1.78940132373686   -0.78822945900214
H           2.28774258634484   -2.57306283374905   -0.79093668075104
O          -2.93394756237826    0.72161849945696    0.32147055122358
H          -2.97135540398915   -0.08579239235226    0.84104020667374
H          -2.04545058754078    1.80459855893817    1.11626924037574
H          -2.59331861645975    0.46600507058893   -0.56020158985412
O          -0.77585369966934   -1.64152479584154    0.19251424360513
H          -0.53480906426143   -0.57764696349887    1.25731636907625
H          -1.27482223965122   -1.29476067911865   -0.56723757279334
H           0.12590476697197   -1.81069322480618   -0.15242296956142
O           0.56022020185597    0.24377828221171   -2.33848481063108
H           0.56294533265709    0.86292401738999   -1.58928975693044
H           1.06231962356231   -0.52327579499418   -2.02409612865574
H          -1.01419166801924   -0.08650072154236   -2.19786619295118
N           2.61952433467156   -0.02911386797253    0.99451862709429
H           2.14012596142328   -1.15055764565702   -0.13154962813483
H           2.03740367209185    0.75179641064277    0.70626628194071
H           2.32111902718512   -0.25626974561135    1.93625809127573
H           3.57162246905893    0.31247849732414    1.05587063923556
