    26
        -50.45462523  Gyration_radius:  2.43337755497 Dipole_moment: 7.035
 S           0.65632039038382    0.56500049254183    1.74768173654540
O           2.07639332285788    0.96771830883900    1.87720173097353
O          -0.01846659519224    1.84007242031801    1.10994773423830
O           0.53277748970571   -0.49152201175254    0.75896626122769
O           0.01873770554096    0.26366880835437    2.99936137352351
O          -2.50691108013602   -1.16957675502240   -0.27351811014760
H          -3.46387717319573   -1.14550808057430   -0.22737118975673
O           0.94517199290175    0.04068538004018   -2.34645263684689
H           1.24465531132536   -0.16673339667355   -3.23251866671363
O          -1.75575772901676   -1.53907392796962    2.23416736709950
H          -1.17609228618325   -0.82069325531538    2.57340148972800
H          -2.19501272468388   -1.28721157999750    0.66195579484744
H          -1.21678170599124   -2.33144406511176    2.28074591048258
O          -0.03925070241570   -2.09265223464185   -1.22703516533629
H           0.26912645222952   -1.72294951401479   -0.37738468973343
H          -1.00085639891268   -1.99791239211306   -1.17375260223415
H           0.60603247798524   -0.82118347276105   -1.95857432320644
O          -1.29654841227909    1.13201254322154   -1.01385549103092
H          -1.77880600715123    0.31814222753285   -0.75414841622559
H          -0.59452012158871    1.57368393596993    0.33086205911161
H          -0.57723478034580    0.83064320132090   -1.58818853986573
N           2.27357815590352    1.61593598488332   -0.51930048545416
H           3.20824348786936    1.84014036967910   -0.84455781263948
H           1.83365558045871    0.89057404926892   -1.12253091842024
H           2.27693745536152    1.26675536160673    0.60659296737138
H           1.67848589457143    2.44142760236310   -0.52169537754365
