    26
        -50.45450936  Gyration_radius:  2.45189587856 Dipole_moment: 5.292
 S          -1.30311354314003    1.34014641625452   -0.93136119007807
O          -2.63419553638110    1.31634764795784   -1.41974157895732
O          -1.35536592763650    1.51689179943829    0.59564785303744
O          -0.49463466128776    0.17785135754307   -1.25198720046499
O          -0.54549954413196    2.58790561725399   -1.43518139554965
O           2.75199973089466    0.28988739216288    0.11060736722553
H           3.67314507480603    0.07729811480009    0.26472826514208
O          -0.32262868282045   -1.87052498214658    1.79699064976021
H          -0.58896039658831   -2.31211775738090    2.60436033481918
O           1.74627345050989    1.58991908382024   -2.05592702479039
H           0.39189821784864    2.31680850198781   -1.67820623644758
H           2.19636964686942    1.28264952628191   -1.24330767552912
H           1.34366159112813    0.80165957653153   -2.43513354923846
O           0.66779070538284    0.65944386699294    1.83949140555445
H           1.46744653102194    0.65988760293553    1.28225003985923
H          -0.50151640435464    1.23165180373214    1.09294836855148
H           0.38982755638361   -0.27634554355258    1.92496680167835
O           1.24098249074111   -1.74448561783221   -0.49187605513285
H           2.29068464563883   -0.55999757487296   -0.14438328508182
H           0.82629531619019   -2.04994601300796    0.32894643791842
H           0.56756138888955   -1.17603698543784   -0.90483576105313
N          -2.48296412079876   -1.18311949277523    0.39198481606099
H          -2.03119451462358   -0.87916780214633   -0.46483183810352
H          -3.24997916109129   -1.79280565671097    0.13360666995147
H          -1.16147976311831   -1.65984762768635    1.29337409031251
H          -2.88240411031794   -0.34395327414229    0.79686971054656
