    26
        -50.45450938  Gyration_radius:  2.45190089234 Dipole_moment: 5.290
 S          -0.96297050801763    1.54460595708536    1.02419777690631
O          -0.39019584598814    2.06045763297393   -0.30683172565875
O          -0.62879465528384    2.47595575595156    2.03997159695290
O          -2.48865213402334    1.49625052204978    0.79097104697096
O          -0.51025085747907    0.18318399195030    1.24514128401886
O          -1.28779117899199   -2.01694952268509   -1.39350740422304
H          -1.41974869486986   -2.83232875085263   -1.87847670706654
O           2.43186689500778   -0.31936709847776   -0.90338416799574
H           3.25639770047595   -0.14791678116913   -1.36007110545206
O          -2.90050786664804   -1.03612899020788    0.56412894574747
H          -2.28504743875612   -1.23939673809896    1.27626214531505
H          -2.76109335012913    0.53824650490668    0.65243116724109
H          -2.46802638590424   -1.36352286194435   -0.25019981227864
O           0.66476297161738   -2.06785384604929    0.32983207461927
H          -0.54206843361447   -2.17501235461765   -0.74617488207489
H           1.44654563866607   -1.69958829080312   -0.10860951731675
H           0.29641269837389   -1.32053063339912    0.83284641743644
O           0.04074373327423    0.28070835970310   -2.04518714110215
H          -0.28199939096336    1.34419184622677   -1.03692301745860
H           0.93573532233979    0.01328579956896   -1.74870676286587
H          -0.53399406145426   -0.49696982125514   -1.92329643789811
N           2.11825276736549    1.43709670340383    1.07876860740342
H           2.37382837674334    0.34247266934369   -0.15479285487376
H           1.79476122186712    2.31500342942521    0.68845158376387
H           1.30662529195065    1.02956507449616    1.53242673278751
H           2.79520818447634    1.65454145247775    1.80073216709409
