    26
        -50.45450940  Gyration_radius:  2.45184296703 Dipole_moment: 5.290
 S           0.49588088789997    1.08276716197026    1.71544163314297
O           0.84654407618080    0.78834883229890    3.05754922952705
O          -1.03154498456134    0.96244492667405    1.58133155269321
O           0.79498819587310    2.55792110883980    1.37060838597267
O           1.13224980668175    0.25891810594483    0.70373251201128
O           0.09753775939363    0.99730105928231   -2.58119087773796
H           0.08135772670976    1.01679131096481   -3.53870641950339
O          -1.38198685896885   -2.17859791828287   -0.41760323774416
H          -2.09930240670936   -2.81304984743209   -0.39090347263650
O           0.96888299777591   -1.22728989529344   -1.54350030752454
H           0.19502914717504   -1.77513853712793   -1.34327753454590
H           0.48116389817118    0.11452966325454   -2.30968608229204
H           1.18478045439828   -0.79744638885749   -0.69743036601417
O          -1.86433385764488    0.47432805641073   -0.75178133245721
H          -1.77583790893723   -0.50135757947906   -0.72770097230029
H          -1.37240302950703    0.83405015855665    0.61949806839306
H          -1.24485128695009    0.79067138708013   -1.43451999401879
O           1.83244801965876    2.34384282299517   -0.97712211001338
H           1.17988549705219    2.59827367104248    0.44251573946730
H           2.32891654652730    1.55721323599610   -0.72814265925854
H           1.15072525576447    2.02943180293410   -1.60458818748769
N          -0.37222388600940   -1.85938915985752    2.03016728162478
H          -1.01863669861424   -2.11523841013480    0.51284140581506
H           0.44066500708623   -1.29627781153624    1.80048735475994
H          -0.98292740709631   -1.24591564577055    2.55783306732686
H          -0.06700693133189   -2.59713212046801    2.65414731279881
