    26
        -50.46095761  Gyration_radius:  2.41772915267 Dipole_moment: 4.508
 S          -0.25465328386462    0.95169945727874    1.41896840320188
O           0.65009013255027    1.93142054927306    2.01170632680791
O          -0.35303635650201    1.42096308506840   -0.10693161788784
O           0.38224563379151   -0.36737001805323    1.36326629374278
O          -1.58523689199313    0.90496960096084    1.94785027198021
O          -1.78804816951823   -1.85582861877905   -1.32399706924499
H          -2.39379110351840   -2.50515759112199   -1.68368218988872
O           2.37104219370136   -0.52795109847147   -0.31472513620850
H           1.70650288357071   -0.64174690171814    0.40545000383353
O          -2.72632708435168    0.57253972703636   -0.43741594334193
H          -1.31133596550872    1.21617171485937   -0.34244603188623
H          -2.52895900978231   -0.32541539556327   -0.76833923423970
H          -2.73235215927644    0.53344907472198    0.53465367449821
O          -1.04270504768084   -2.54070247592838    1.10472358379123
H          -0.41190212059924   -3.23871795168680    1.28965722711516
H          -0.57530375375797   -1.69744044999174    1.31434561311020
H          -1.51711630377108   -2.18364146777222   -0.42959488176320
O           0.44003989181212   -0.34421684992649   -2.14647208503912
H           0.13893640122413    0.42358020752134   -1.64038608156489
H           1.83526867955397   -0.61214566187333   -1.13587239404964
H          -0.27223783831069   -0.99393433975826   -2.04852612478648
N           2.42111231450720    1.99990557652789    0.18464412228363
H           2.52053989042404    0.93932287243092   -0.08533132928009
H           1.70369041289078    2.02107461039099    1.01623910258715
H           3.30980368061948    2.40389098256760    0.46261547141573
H           2.01373297373474    2.51528139164824   -0.59039998510657
