    26
        -50.45556821  Gyration_radius:  2.43278949844 Dipole_moment: 7.580
 S          -0.75271347833929    0.86523432878271    1.53749165853877
O          -1.64039303040690    2.13932662033433    1.73940808202571
O          -1.62764793825537   -0.28360677852709    1.40469282576960
O           0.06670780462892    1.10090573372924    0.35583613443821
O           0.12792899596254    0.76747091387819    2.70856865105768
O          -1.41422146300152   -0.44697261829813   -2.40623685965001
H          -2.07707814914698   -0.85465492775615   -2.96500337138288
O           2.02939939221079   -1.54252813197388   -0.26766288187068
H           2.70561619203175   -2.08036042222297   -0.68235936902985
O          -2.78517483314451    1.19804396329948   -0.50509268291339
H          -2.70221676328204    0.45492910516728    0.11144276657489
H          -2.17911533377053    2.14400900033301    0.92567551758358
H          -2.26030382360141    0.92972648600996   -1.27615740289344
O          -0.81177024816869   -2.05923735945432   -0.38536713175232
H          -1.16761314062853   -1.50123142189036    0.33706057405431
H          -1.23611884808847   -1.09160122404838   -1.67444676346341
H           0.14310623609874   -2.07718393162622   -0.24550930668151
O           1.17888844568078    0.28677162954673   -1.87753316620356
H           0.40805976872798    0.01253463094892   -2.39837607957285
H           0.76584188611733    0.75271951103470   -1.12149587764339
H           1.71697722307553   -0.88279220835278   -0.96731837787751
N           2.34493267145192    0.42636528530600    1.53906854543667
H           2.26375198648649   -0.44091011546106    0.94899909300499
H           1.40980053812431    0.53316847483998    2.14291888187196
H           3.17963409280026    0.42630720081772    2.11697623085130
H           2.31372182643852    1.22356625558621    0.90442031972715
