    26
        -50.47166718  Gyration_radius:  2.38845808827 Dipole_moment: 3.166
 S          -1.38655795992345    0.30266382417220   -0.05250982263770
O          -0.43860712708038    1.40258819147174   -0.19521808055603
O          -1.77524378107089    0.10835240451393    1.33579951362534
O          -2.66042687833229    0.67093257223306   -0.85838718135079
O          -0.84588418486364   -0.93750999375721   -0.61609871080203
O           0.59987322431697    1.51944865657496    2.24815821783103
H           0.28787850604081    1.61421341393905    1.32620270460011
H          -0.20340837057877    1.40229173419456    2.76089360274690
O           0.99271911680709    1.53450744280478   -2.37653474158337
H           1.22301513441643    2.44337452766824   -2.57448806467199
H           0.49398147747923    1.55539758781715   -1.52637962480683
O           1.82423153927612   -0.71921368105861   -0.75010641381687
H           0.85694811674653   -0.84820036365926   -0.76518150943778
H           1.98098296038181    0.02046815696010   -1.34819748087460
O          -1.31650328323848    0.17768086578147   -3.04305422090965
H          -2.35477835224255    0.61209597012479   -1.79808887447899
H          -0.50759340260045    0.72008632330811   -3.08038551989607
H          -1.06678645379841   -0.59926906310984   -2.52366834120688
O           1.95133530038181   -0.74777690463345    1.91425200891674
H           0.71907158348439   -1.52606026061427    1.93169349705125
H           2.13871552527549   -0.71963237069108    0.94807171181730
H           1.62552364556883    0.15514428938626    2.14032861134659
N          -0.29246102379093   -1.97203031088968    1.79338630116184
H          -0.51821226429409   -2.68443463913888    2.47942616754528
H          -0.34724316076157   -2.32432164125239    0.83440202867387
H          -0.98056990757430   -1.16079674219674    1.79568425171561
