    26
        -50.45556815  Gyration_radius:  2.43276721617 Dipole_moment: 7.579
 S          -0.15170154536925    1.84669888746149    0.49557134033710
O           1.15964252992190    2.45582883415860    0.75224187535855
O          -0.52286950386366    1.90024179165005   -0.90527095630366
O          -0.15173528079491    0.49381184046688    1.03683048323572
O          -1.20404452195377    2.66674320953172    1.31533459308092
O          -2.15444875015172   -1.55384475717633   -0.96563699778363
H          -2.81870022481744   -1.82337814588485   -1.60120623225053
O           2.02817628341600   -1.44127123191319   -0.61523711612652
H           2.55337750361611   -2.21017366363004   -0.84206166689038
O          -2.89319103412811    1.03836828483047    0.00088333238388
H          -2.03470584846463    2.19854430199607    1.10731427308677
H          -2.27036479970452    1.39558459713544   -0.65003826701971
H          -2.75545459687797    0.07834938354649   -0.03698803645922
O          -0.06882898943503   -2.11146610622929    0.73200221093625
H          -0.19166351817868   -1.17625854243553    0.99577554630151
H          -0.84688830092668   -2.27416819052180    0.17632011521441
H           1.20932496256853   -1.78437063013137   -0.13143353249569
O          -0.13045907104705   -0.37183790333378   -2.21168739292702
H          -1.43270618472096   -1.11969332998102   -1.48847774837254
H          -0.25562819437170    0.52623306555274   -1.84063832963839
H           0.70990476263090   -0.68068505703299   -1.85102265734245
N           2.48544647760858    0.37637728636024    1.31551942775195
H           2.43060896388755   -0.27048016251894    0.48759989917536
H           1.99270396383625    1.34274992984428    1.04368667008933
H           1.87704426056849   -0.00935095679252    2.03685124064048
H           3.43716064674646    0.50744725504895    1.64376789601906
