    26
        -50.45556814  Gyration_radius:  2.4327289895 Dipole_moment: 7.580
 S          -1.05626382993033    1.49201069457110   -0.58011905189461
O          -0.26998474716162    0.36505428107183   -1.06481031704347
O          -1.55927182258953    1.29912568970548    0.76625537841784
O          -0.25411972913550    2.71527586010138   -0.70960371663574
O          -2.27962290442265    1.64445073878988   -1.54556715000370
O          -1.08566534207565   -2.49204019524867    0.77352630574299
H          -1.57144854994210   -3.09321893681138    1.33957264484161
O           2.39641789086684   -0.14928701478270    0.89663957455371
H           3.22034929904295   -0.52395795326636    1.21165086886836
O          -2.97706434552256   -0.67127060171617   -0.36945576074025
H          -2.72280532405854   -0.05488817336263    0.33384471104132
H          -2.74919041974617    0.79888710998467   -1.41519492369788
H          -2.35296820327712   -1.40911017026105   -0.27906581012165
O          -0.16818778763804   -0.44649682442779    2.19485149898816
H          -0.77438499848293   -1.75410984854396    1.35775823425797
H           0.74234560066023   -0.24734297097073    1.94390257421331
H          -0.70982741332202    0.25535505975803    1.77781821170545
O           1.15634655866220   -1.79911963646394   -0.65329130323977
H           1.95087036132397   -0.86341738462103    0.33650452600612
H           0.52720844917299   -2.36860744395959   -0.18369456635229
H           0.58450388335957   -1.06766318816356   -0.96505482971853
N           2.03284861933712    1.68527741350808   -1.03810953841892
H           2.23606773723019    1.08606299092756   -0.19756992803369
H           1.81413533855799    1.05470342030519   -1.80868006094347
H           1.07203007314679    2.22960800471298   -0.86151126000318
H           2.79768158593786    2.31471905916589   -1.26059631179089
