    26
        -50.47166719  Gyration_radius:  2.38848769946 Dipole_moment: 3.169
 S          -1.36754016855705    0.13877399772147   -0.36059918261793
O          -0.90340227442586   -1.17290697168168    0.07876593525427
O          -1.27065038514212    0.28399080465238   -1.80474691590172
O          -2.86271689573391    0.26585726406987    0.03388662269480
O          -0.63546713408248    1.21252239426423    0.31702211420556
O          -0.25740974884890   -1.48572522790610    2.59053594660231
H          -0.47907089895766   -1.44997792544075    1.63055406477417
H          -0.39439930978114   -2.39403927152063    2.86333464047580
O           0.68118458650116   -1.87363915443618   -1.93539219963605
H           0.11008087090045   -1.76349266771799   -1.14914239102727
H           0.13609237686802   -1.58120047512511   -2.66960499586575
O           1.67275460493386    0.21570700820306    1.25058114930048
H           1.40966576987110   -0.46518182080079    1.88032501538021
H           0.83482387516711    0.63141528119981    0.97188301173268
O           2.53947862830317   -0.09628518035856   -1.25279267728577
H           2.43065659017797   -0.07008744553548   -0.27455837975742
H           2.01759240443638   -0.87870071507145   -1.54930661471946
H           1.67916837589220    1.00980016976555   -1.65390845297391
O          -2.09521927082170    0.57215053733088    2.51130760584637
H          -2.82807450275870    0.33511143628123    1.02084772695028
H          -1.54885175103291   -0.18203285384698    2.79868940152078
H          -1.47424933926564    1.17346406290408    2.07715498781707
N           0.86891724749388    1.75287609654978   -1.83425292241968
H          -0.01434622089198    1.19258561038423   -2.02767294965854
H           1.08515257379586    2.41693497414447   -2.56998058203926
H           0.66582999597156    2.21208007195910   -0.94292994862964
