    26
        -50.45282979  Gyration_radius:  2.46179557303 Dipole_moment: 7.472
 S           0.40023052072730    1.09825818297036    1.82424511998115
O           1.80841325304637    1.37488735889948    2.03751926509611
O          -0.51737525859289    1.40203922959132    2.88058530141347
O          -0.03786559581110    1.68362503091636    0.52841174936980
O           0.34883760257032   -0.47588959396213    1.57999010797861
O          -2.35336210263354   -1.27077331315947   -0.54153275296774
H          -3.02434860607264   -1.93528322596791   -0.70269832024190
O           1.33259631017804   -0.51383076305184   -2.16995707574573
H           1.46960963206917   -0.67209607543282   -3.10463885310520
O          -2.14261168052416   -0.64320266161291    2.18095670266346
H          -1.97954456269518    0.24971903846786    2.52674609858046
H          -2.46393289648283   -0.57827537031570    1.26705999262412
H          -0.57059597879061   -0.72453429919688    1.88055667920027
O           0.09537417761527   -2.33342111137497   -0.44629248711585
H          -1.49187540842880   -1.75601933426430   -0.48525932176981
H           0.61539561220783   -1.88393500380854   -1.13095444932260
H           0.35888801127065   -1.90909247818222    0.38317444510578
O          -0.93364033665768    0.70372405664945   -1.79685011143697
H          -1.60128461860256    0.04715913489567   -1.53594507264752
H          -0.74394050155056    1.18698440546717   -0.96954316480432
H           0.44564935115006   -0.04405753324511   -2.09105428914307
N           2.25089442291844    1.39658884949198   -0.46413348632724
H           2.21199464885285    0.55821490389063   -1.07165318830666
H           2.81855966024330    2.13550482882945   -0.86385217150867
H           1.22240898772508    1.69375153324225   -0.26563808464349
H           2.48152535626637    1.20995420026334    0.55075736707307
