    26
        -50.45282966  Gyration_radius:  2.46189814236 Dipole_moment: 7.475
 S          -0.13186803348617    1.25381956131681    1.76261569556393
O           0.30793083315131    1.68768608086494    0.40870581876247
O          -0.60692493822856   -0.25316428051437    1.55498611915958
O           1.01748139917407    1.14263241538221    2.64056830746442
O          -1.26252216118357    2.00505241761413    2.21813046331067
O          -2.11473668431013   -0.60655504349184   -1.61345878021072
H          -2.81952094528581   -1.06407183303428   -2.07347254560196
O           1.91021059250041   -1.27660023802919   -1.21390155845789
H           2.39820083468325   -1.63888036369204   -1.95419031305275
O          -2.97767281838835    0.43150220634705    0.84293433333213
H          -2.79737405621209    0.41641061205493   -0.11085954213027
H          -1.58280689032948   -0.16155384946600    1.36365474787960
H          -2.69282936073278    1.28529705387753    1.20841090472749
O          -0.52378550113973   -2.30019807649360   -0.29561153101240
H          -1.60454006303846   -1.30251797324325   -1.12768324987660
H           0.37177880317127   -2.15856571629830   -0.64064697131092
H          -0.54279750337530   -1.82394755147811    0.54716589968888
O           0.30626898621289    0.59609588071497   -2.03682518697482
H           1.31075989409201   -0.56268216988845   -1.59426112428869
H          -0.58680970348148    0.22350667915900   -2.12909159904665
H           0.24798190275078    1.14862220607381   -1.23364993276003
N           2.53698330579590    0.56617379886822    0.68627761562324
H           1.70451657230718    1.18124934508265    0.34567045281372
H           2.49490816312307   -0.32175635654463    0.15393543629768
H           3.43923694330775    1.02146349450684    0.60506823623772
H           2.19793043892690    0.51098170030911    1.68552832386229
