    26
        -50.45282978  Gyration_radius:  2.46192057886 Dipole_moment: 7.473
 S           1.79528922408173    0.31377362567303    1.17165549097576
O           1.31118444495498   -0.99072222537875    0.64411706253997
O           0.63195830861363    1.33982227321242    0.80532558813079
O           1.92175811253570    0.29474978229999    2.59782763834373
O           2.92721907322464    0.77110499036392    0.38805012088256
O          -0.52497981333027   -0.26051374418711   -2.53112349469332
H          -0.97428444724937   -0.59136960834055   -3.30966811023394
O          -2.50012657419016   -0.25869406827237    1.06241153373121
H          -3.41189362989846   -0.11045313183298    1.31640600662949
O          -1.65907557434784    1.54333114947453   -0.72120470764189
H          -2.26599580443104    0.47093365886500    0.43509983901659
H          -0.84173392469269    1.77345404654115   -0.25588392007318
H          -1.36878355204284    1.04283420824428   -1.49992833079848
O          -0.93999551243680   -1.85526079438302   -0.52064200957502
H          -0.13027505839292   -1.69911683072750    0.00262641147978
H          -1.64950883295892   -1.48439848072912    0.03068298293159
H          -0.72279863153332   -0.91541339444878   -1.79248895857042
O          -0.71004551167824    0.81600630194550    2.93176506535381
H           0.05202552038632    1.32856852099389    1.61836302173205
H          -1.28414142354361    0.15089608851187    2.51871852020239
H           0.12706734392041    0.39785349012684    3.19255826788929
N           2.05566549432910   -0.41498865221520   -1.68365984060245
H           1.20865156238698   -0.13007653328516   -2.20804536453947
H           2.69411498080293   -0.96151946566974   -2.25085022825678
H           2.54279351782700    0.36026651131143   -1.15560268574130
H           1.71591070766139   -0.93106772809179   -0.78650988910832
