    26
        -50.46954182  Gyration_radius:  2.39864373649 Dipole_moment: 4.982
 S          -1.20165244278797    1.00035304264620   -0.29203270643203
O           0.20007417277284    1.46167559783575   -0.37704351276520
O          -1.69090895801383    1.43120257820766    1.12580457823554
O          -2.02142248919620    1.61468239837789   -1.29963912985426
O          -1.25028596708159   -0.46261867305689   -0.34324248951368
O           1.40732846385544   -0.98108222129987    2.23278330379716
H           2.00463684233565   -1.21961547233125    2.94280538784154
H           1.41135536431580    0.00878436302281    2.18077408989644
O           0.96460025629901   -1.92233133811222   -0.36886509389721
H           1.32521483547027   -1.71747608956214    0.50796151932135
H           0.06088384341480   -1.54188702611700   -0.34787774601634
O           1.15674952360185    1.63825014961918    2.05454989550676
H           0.42334983058630    2.00158114513913    2.55655361871624
H           0.86696639753184    1.67470587873598    1.11473095406798
O          -1.26442815307466   -0.08337768225311   -3.17021843271515
H          -1.61386116821340    0.64525758750700   -2.60611185998545
H           0.31706779915135   -0.15366567022337   -2.76908656764564
H          -1.69851393657844   -0.87172004483619   -2.83294392861310
O          -1.35130045152927   -0.87256416899239    2.27169261430236
H          -0.39757256358302   -1.01897582676797    2.41220213412842
H          -1.62221989198394    0.61919307842394    1.70083900887689
H          -1.51555779997444   -1.15679061227225    1.35837140500072
N           1.20110128872305   -0.05443492068830   -2.19693891733491
H           2.01082076982989    0.17802874692469   -2.76037270781727
H           1.32981133094254   -0.92083385053577   -1.60279986953208
H           0.94776310314294    0.70365903053788   -1.49189553763313
