    26
        -50.47350526  Gyration_radius:  2.40658414061 Dipole_moment: 5.131
 S           1.20355231260514   -0.86432489917662    1.02874348322649
O           0.97552526416228   -0.99042783001419   -0.41927570577768
O          -0.02980175215588   -0.45472178415637    1.69375493750394
O           1.58961510759711   -2.27679347504721    1.55256259380266
O           2.30387069850279    0.03795472218955    1.29818762835499
O          -1.89407487115588    0.90591579425240   -1.41116532363375
H          -2.80264554114497    1.05753949015427   -1.67524632938633
O           0.85598275926522    1.13339758768909   -2.02892488134689
H           1.02434490694687    0.27722749961049   -1.58195260260521
O          -0.96859786820807   -2.90315128257520    1.37341479438290
H          -0.95654573953268   -1.99502116428991    1.72323441093852
H          -1.32439992729183   -2.81297186353860    0.47828390584159
H           0.73698781496955   -2.76558893759075    1.52465719418223
O          -1.35646990064832   -1.72798575513993   -1.18259324134036
H          -0.44283867034487   -1.47651369076810   -0.86621821456257
H          -1.79406317619271   -0.06544688538370   -1.28774783985269
H          -1.22538787015428   -2.17863787551895   -2.01916036174382
O          -0.97836559564224    1.91251584884851    1.01277307582613
H          -0.73434841102707    1.05381807520875    1.42336434019841
H          -0.10911075947138    1.21598041997344   -2.04206153588760
H          -1.40957567844591    1.66762551335725    0.17490399378335
N           1.49040245327265    2.28847135915154    0.24912344162930
H           1.38274408888346    2.01763007646749   -0.76899069606929
H           2.02033149104144    3.14217449169000    0.38187407127907
H           0.49643761960252    2.34250617773731    0.63963706196396
H           1.94643123458540    1.45882836682531    0.72882179931700
