    26
        -50.45731619  Gyration_radius:  2.44440780388 Dipole_moment: 6.859
 S          -0.54133707175408    1.92422408618216    0.08714184110535
O           0.51619127532385    2.86682478426941    0.37898024091406
O          -0.05706337081709    0.92762487700242   -0.90205800994506
O          -1.06171122069887    1.26500342266736    1.27215931974389
O          -1.71437994431069    2.67291652831959   -0.61505689305086
O          -1.80424745331738   -2.19149909491585   -0.35951171107101
H          -2.21079221234977   -3.01918055940451   -0.61802234881119
O           2.29358745934078   -1.13498607438157    0.87285880470836
H           2.81340755167559   -1.49792088655606    1.59117599428129
O          -3.04453308890306    0.37914736037624   -0.27307143954648
H          -2.73353958000383   -0.50921870690308   -0.50647455805484
H          -2.59136590720333    0.57666666532904    0.56154930177665
H          -2.38224950202417    1.96669670064207   -0.73059940611338
O          -0.15690445714651   -1.17210697648379    1.68551455838665
H          -0.77462223379363   -1.65770748121234    1.11573429791482
H           1.33946181413754   -1.15314783027947    1.19913431117628
H          -0.47624713507265   -0.24420831927846    1.65398536816459
O           0.52623923396356   -1.61701132977033   -1.51568287087046
H          -0.99129654440127   -2.08501696723047   -0.90667153570795
H           0.25084035516149   -0.68494252270168   -1.43349050375036
H           1.22140902514528   -1.73879182888565   -0.85933910233019
N           2.38132085077373    1.22847785710357   -0.34224584463536
H           3.15319069341724    1.44909035160324   -0.96150261793691
H           2.55223985778943    0.37431999205853    0.24491121874394
H           2.04539195386220    2.04837912337342    0.20938318566336
H           1.44700968120517    1.02636679907668   -0.84880161075438
