    26
        -50.45554464  Gyration_radius:  2.50325534686 Dipole_moment: 5.887
 S           0.95184742750728    1.05311207544157    0.06922551034128
O           1.50556468558933    2.38901916975952    0.32978914536532
O           0.16259428762303    0.72426671850721    1.35880251982662
O           0.06022982482118    1.00648741935517   -1.06674079446567
O           2.03342173822134    0.06129535260166   -0.01025724551647
O          -2.95269087434536   -1.01876359988585   -0.60231177823455
H          -3.83453221454594   -1.18880094584056   -0.26874854968967
O           0.93845436334303   -2.38345015456072   -0.50877493463108
H           1.50284001391821   -1.59997078471441   -0.39851802631263
O          -2.51947778704220    1.58281319223162   -0.96223403151164
H          -1.54427500789298    1.48317905018129   -0.92673873001654
H          -2.71139582619637    1.93327568273861   -1.83448558726317
H          -2.87115469439214   -0.03990525435809   -0.70322544069518
O          -0.90731522849484   -1.52150171847100    1.13407840461308
H          -0.22317734033298   -2.00458304334396    0.59233533450664
H          -0.31538787018979   -0.21081488752039    1.30026098787613
H          -1.67796039466000   -1.40532098290348    0.54161553704304
O          -0.70472668544090   -1.29817083148061   -2.36194356639562
H          -1.57261964679826   -1.40193454404292   -1.95178705032954
H          -0.38238004656070   -0.42934767700130   -2.07126049585821
H           0.43527380805292   -2.21589502870008   -1.33216670571828
N           2.97356709501117    1.29820114799058    1.99519307911866
H           2.37059080653197    2.02841328441277    1.37221388619409
H           2.84034299504232    0.50625897658671    1.29663314510637
H           3.94386462071757    1.55735725298463    2.13963109543566
H           2.49850196047737    1.09478012004861    2.86941428119568
