    26
        -50.44582851  Gyration_radius:  2.49695786809 Dipole_moment: 4.791
 S           1.83880304570059    0.22021671097241   -0.25154290273567
O           1.15495674012138   -1.05743200209357   -0.26054725713069
O           2.27641484669007    0.63276982010531    1.05271717795280
O           3.09054437855497    0.12164212851728   -1.17801770960600
O           0.96347412138360    1.25362421939406   -0.88556329108093
O          -1.51135902274996    0.02848497137265    2.08873653474235
H          -1.80259233991882    0.45781027310123    2.89464445480483
O          -2.56556455348878    0.46758843126340   -1.57025890558383
H          -3.51433030620623    0.35647152023972   -1.49229854133057
O          -1.44102590622888   -1.53526969718213   -0.35420193066528
H          -1.64551463349317   -1.33591648535848    0.56629007733136
H          -2.15074649680200   -0.39257707166855   -1.27555369216323
H          -0.46433870637051   -1.44718589272715   -0.42427846593417
O           1.47323524099043    0.24204915883210   -3.27881880756672
H           1.01993222357163    0.66916567866749   -2.52799055339155
H           1.64275876705921    0.93148006585445   -3.92467675439786
H           2.70222123525589   -0.03255654693509   -2.06096494352435
O          -1.19403334037621    1.70366908328860    0.17889928521154
H          -0.19883908339833    1.55740989488868   -0.24841336811442
H          -1.80939029798277    1.33462632707489   -0.55636028891607
H          -1.28575840099766    1.05399070053911    0.96800234285871
N           0.74593504283723   -1.10322053359097    2.57529573728188
H          -0.61176163027279   -0.43014444707072    2.31526289258858
H           1.39612848092591   -0.42564853411090    2.16452361131922
H           1.07850087011976   -1.34653150949328    3.50015040167677
H           0.81234973506935   -1.92451624388572    1.98496488637537
