    26
        -50.44582848  Gyration_radius:  2.49690109039 Dipole_moment: 4.792
 S          -1.50937240779646    0.88365188899653    0.65933144400435
O          -0.20286707430142    0.90841019394660    1.28597502994049
O          -2.33700135859327   -0.20810901488432    1.09059847097775
O          -2.24737676195755    2.21728671541493    0.99335917663937
O          -1.34462332630925    0.88954872372571   -0.82694340780356
O           1.98615846972953    0.32323489707467   -2.28267494624496
H           2.77324695306461   -0.08534572136245   -2.64614133921558
O           0.76880097958757   -2.46062784591135    0.05516182764963
H           0.58602164423418   -3.38929142417303   -0.09563668052899
O           2.11166147171998    0.09917971286981    0.30362988900866
H           1.97959717759912   -0.84868707555118    0.41752558766229
H           2.13427162767646    0.40514575768671   -1.29770710093491
H           1.31597927487132    0.51800218093164    0.70112789774405
O          -0.68648844186745    3.45322068506998   -0.76179157835412
H          -0.73297761622369    2.51197741313944   -1.01393025990073
H          -1.11785666934444    3.94642473663527   -1.46307202158751
H          -1.69232630594770    2.89379763194743    0.55934463476848
O          -0.14394159234536   -0.99131524393093   -1.83236565857266
H           0.69032315048891   -0.48657858808868   -2.15618333464832
H           0.17702458052729   -1.59267646764486   -1.06527258760214
H          -0.74678200227102   -0.19431293079789   -1.38973425144287
N          -0.37751781769002   -1.78272655830402    2.25493912544279
H          -0.65610316030760   -2.43142695424678    2.98070234459484
H          -1.21653004827317   -1.31233965619501    1.90080757432394
H           0.17828819212227   -1.04831962552500    2.67821990940472
H           0.31039105159289   -2.21812342082004    0.95073026467836
