    26
        -50.44582853  Gyration_radius:  2.49696722641 Dipole_moment: 4.789
 S           1.10500675521124   -1.28970189903423    0.77935641951031
O          -0.18558837607910   -1.56583217438921    0.18071546822811
O           2.00337762787240   -2.55712955237313    0.63269475695406
O           1.79822040932197   -0.22552532235736   -0.00996847215604
O           1.03487557513445   -0.94720019897272    2.17244029643102
O          -1.59001698289124    1.78137283104771    0.97196457566255
H          -1.74881520408662    2.50852771587458    1.57584003163686
O          -0.08041230779383    1.66232693832781   -2.54925356307958
H          -0.62532132422720    2.31333501768091   -2.99401114834602
O          -1.67348893196258    0.01286153446618   -1.32603348488857
H          -0.69297211897709    0.93181188739683   -2.24944927746232
H          -1.13749520270948   -0.66987506160366   -0.86437112125374
H          -2.02309295234711    0.57389997513196   -0.62467553533715
O           0.70499309469008    1.95990475818292   -0.14859582694404
H           1.22822894663069    1.00909793300503   -0.01989625558374
H           0.47403938873367    1.95430857554243   -1.14961928742100
H          -0.19275452835968    1.88296648917337    0.34259064471927
O           2.31650404464099   -1.96717043421777   -1.93590919670417
H           2.10655174262366   -2.64600933447178   -0.33458079737575
H           2.10783949170984   -1.13995811019400   -1.46277624890563
H           3.21551161281901   -1.87810914218913   -2.25992574721909
N          -1.67598209738075   -0.39924776430651    2.33211266796161
H          -2.13093096102650   -0.49749307830465    3.23127566353080
H          -1.64478059935074    0.91794123770486    1.53988931782997
H          -0.67674355109279   -0.59395842226023    2.45094679585801
H          -2.01675352111336   -1.13114441887248    1.71923931435945
