    26
        -50.45590513  Gyration_radius:  2.44291213832 Dipole_moment: 7.041
 S          -0.61281367903616    1.69487572032454    0.13687971157508
O           0.07249189074570    0.99090192874633   -1.09416261047354
O           0.04251887099018    2.99042649395132    0.19935018880948
O          -2.03624439591951    1.69639542322598   -0.05558365487133
O          -0.20384977028318    0.86369168309890    1.30004034569851
O          -1.82049603406407   -2.38149457769082   -0.22180518590182
H          -2.49566831281060   -3.06073620609429   -0.25128316853676
O           2.90874135852688   -0.34002579763805   -0.67109316071776
H           3.62382089246393   -0.91560061549576   -0.39392463766643
O          -2.61059958012709   -0.45442135512950    1.35360970097698
H          -1.83726452880222   -0.24759551364993    1.89305834264068
H          -2.67466023283006    0.33248920316308    0.77206657254731
H          -2.16801313541462   -1.67750648656284    0.39880837289651
O           0.77098099526535   -1.47772817257834    0.43676685642188
H           0.37395087036339   -0.65902179522324    0.79661979028374
H           0.02029519381583   -2.00996294077725    0.14369257203293
H           2.07624692856420   -0.80904882653450   -0.42843109407502
O          -1.27657441594674   -0.85535138328312   -2.35870174252086
H          -0.53828336924615    0.37859269128848   -1.57977308947192
H          -0.57916288432778   -1.30314012839502   -2.84197191106181
H          -1.54165222085014   -1.45202655569909   -1.62476137573088
N           2.16045592461816    1.74984347677958    0.82406173278023
H           2.56094246189836    1.07578956667225    0.12128463547515
H           2.86788993683073    2.16209464001799    1.42288214729187
H           1.51142063977227    2.47456629370798    0.37389050304170
H           1.40552660581696    1.23399325376893    1.34848013854753
