    26
        -50.45273918  Gyration_radius:  2.45686638377 Dipole_moment: 6.228
 S          -1.39316599552047    1.38376161342387    0.67618363930257
O           0.08727751152688    1.45942386578221    0.50986453491346
O          -1.77662106638885    1.86108145932862    1.98310487001248
O          -2.07083121009613    1.93543722669595   -0.46618470902391
O          -1.70923209602881   -0.15695018076708    0.77601885030046
O           0.85181771847716   -0.55454002174628   -2.65828179922210
H           1.06864969663555   -0.74034143622800   -3.57270102101139
O           1.05511064317835   -1.89966656129216    1.40469662047189
H           1.70536452919949   -2.56513212255640    1.63228131608011
O          -0.70977423361882   -1.90333151181380   -0.86155898745201
H          -0.13278943092013   -2.18186592838135   -0.13641741810312
H          -1.42279427642111   -0.73474764307040    0.01800701862856
H          -0.13895732381947   -1.50096258487052   -1.54142558190893
O           2.08171154956472   -0.14834195669771   -0.23974459408828
H           1.88741656180445   -0.36736597249050   -1.16519894095728
H           1.46968645689221    0.58767226465658   -0.04521501432653
H           1.51201382420519   -1.25859761079600    0.78670233184916
O          -0.80014372953274    1.49812009983463   -2.71599854943074
H          -1.55283692032286    1.44418438226108   -3.30827663075941
H          -1.18693316524393    1.72516468793593   -1.83708878367231
H           0.27851552650910    0.25515956440931   -2.66670178270128
N           0.19987393014660    0.34527132070117    2.74384647324953
H          -0.78716125423598    0.66669676120870    2.84851264414742
H           0.29181261257424   -0.65606715619967    2.49373546367694
H           0.40614010485813    0.89867352511896    1.81233173935165
H           0.78585003657461    0.60726393554948    3.52950833067288
