    26
        -50.45987903  Gyration_radius:  2.52561737154 Dipole_moment: 7.500
 S          -1.02977213917114    1.11028296595852   -0.22735334049905
O          -0.11848443639902    1.88676807563207    0.63181681642660
O          -0.22959333952694    0.23415508954472   -1.10179829336292
O          -1.78154561451438    0.13771179032544    0.77342174120162
O          -2.01646162083648    1.88190908861725   -0.90157216382801
O          -2.35808292194423   -2.75832312390931   -0.28185236927523
H          -3.09763908997919   -2.67991711529877    0.32273252637209
O           3.56999245681099    0.67214373464669    0.38781503793624
H           4.27071077173459    1.29136274469443    0.59682807278020
O           0.01025781057464   -1.82577974151607    0.50405498676772
H          -0.70738609736298   -2.45201089994097    0.26810553674326
H           0.12767850631438   -1.27384838764550   -0.29599294010581
H          -1.23837799900038   -0.67379813667653    0.84629826675984
O          -2.60381360234157   -0.64821720389320   -1.97919348698555
H          -2.51661708985600   -2.08895471236775   -0.98159819736127
H          -3.03483235235800    0.17546425849297   -1.72550263049980
H          -1.66199992953988   -0.41806096823924   -1.97509358898905
O           1.88037164428369    1.87019817417901   -1.23429756610561
H           3.03709451145710    1.09179523633524   -0.33998921965450
H           1.24380004938129    1.17970231851443   -1.49080006444499
H           1.36847134120193    2.41131533731157   -0.61814488519091
N           1.38425573079775    0.16179183050020    1.79251122137632
H           2.33630760576406    0.29436949903976    1.34998007511122
H           0.73796091397631    0.93214800741075    1.36545833661817
H           1.00081707046160   -0.75491733883741    1.51122856326519
H           1.42688782009572    0.24270949716026    2.80293758495051
