    26
        -50.45987902  Gyration_radius:  2.52553595211 Dipole_moment: 7.501
 S           0.28867673938880    0.67359339504018    1.34388559992118
O          -0.06841704297428    1.90324042716286    0.40965109471914
O           1.68552101226833    0.34912841756655    1.00471035184499
O           0.08072600327696    1.08101916652151    2.69090545238812
O          -0.57946290158889   -0.42901274557542    0.89304690537664
O          -2.97637472845373    1.95200959951389   -0.76089655660663
H          -2.82116412961735    2.89739538354070   -0.73789355437213
O           1.98303280091437   -2.79238487749206   -1.27092150314874
H           2.80042267868354   -3.29221319248794   -1.25567440522309
O          -2.58366652613056    1.10631329365340    1.79321119568245
H          -2.08252740569798    0.31263768006601    1.55022573907090
H          -1.99523989641111    1.56141508168011    2.40585129887598
H          -2.97718731537622    1.66149374918017    0.17632483791787
O           1.25647258995945   -2.34409925734343    1.21741932129664
H           1.65289549968245   -2.77242211239848   -0.33261806321902
H           1.83404167082991   -1.60801176854899    1.46038813179353
H           0.38374183277113   -1.91747770663872    1.15196635429153
O          -0.99394562871428    0.36735173834125   -1.57135986558591
H          -0.40952147151834    1.53452113651919   -0.43090150348070
H          -1.04186124351305   -0.20179149433081   -0.77623489048225
H          -1.83865800567720    0.86651958311930   -1.56803932068618
N           1.69031157307728   -0.17150364420341   -1.50719748928630
H           1.85569189325790   -1.21518993579155   -1.56442674295552
H           2.37402664812464    0.34574332070496   -2.04969000421160
H           0.73048561918470    0.04109195795543   -1.82335941797450
H           1.75197973424434    0.09063280424014   -0.44837294594137
