    26
        -50.45987911  Gyration_radius:  2.52564383354 Dipole_moment: 7.500
 S          -0.32396972368376    1.48776219767806    0.15860312624674
O           0.79274287744643    1.44643168115169    1.11928663118496
O          -0.74862837055521    2.79547642692202   -0.20646322554406
O          -0.00848289168484    0.60322556279163   -0.97744196307456
O          -1.52495273222618    0.78777862129959    0.92022436631028
O          -3.39228427706075   -1.03484409179739   -0.82124993819680
H          -4.03603285814266   -0.76761233839180   -0.16352639480800
O           3.39682214244359   -1.31639838177248    0.27027386255456
H           4.29649749447435   -1.20750175001347    0.58171613941195
O          -2.44206374496191    1.28730771622676   -1.86916417670209
H          -1.51317043323915    1.00954198363758   -1.87873482242515
H          -3.14941262702836   -0.21464863624294   -1.30191305960354
H          -2.42200392971760    2.11223972191056   -1.37144009574793
O          -0.93283011693783   -1.64889990947134   -0.00151021397517
H          -1.84875574334629   -1.74777427931406   -0.33925240457272
H          -0.50318587703768   -1.03576264175336   -0.63238663155827
H          -1.46352504451676   -0.17120911528361    0.73184129175585
O           2.63874861941384    0.94696416242115   -0.83603771651609
H           1.76169294598604    0.76073166707000   -1.21539190305527
H           2.42424899589092    1.48178662316187   -0.05983081515685
H           3.19288616541773   -0.50993166237850   -0.27537979654293
N           1.15863149023038   -1.03513152971595    1.65641892251356
H           1.16882513062077   -1.26171733994056    2.64528363783664
H           1.01051533781229    0.03630816431778    1.50220857421204
H           2.07772317272167   -1.27741371949844    1.19105167750713
H           0.38996399768349   -1.52670913303892    1.17281493795966
