    26
        -50.45987914  Gyration_radius:  2.52570171522 Dipole_moment: 7.499
 S          -0.37485914627377   -1.38501863812399   -0.53411151481325
O          -1.22549728888384   -1.42318437615495    0.66867151774723
O           0.88795717289399   -0.70057514369658   -0.20344944207969
O          -0.21797515889961   -2.63575368399528   -1.19351428302091
O          -1.13769990314705   -0.41148842559414   -1.52541349828640
O           0.18374303832470    0.75031611691972    3.57065888188586
H          -0.06290026701745    0.52835344319832    4.46960527488821
O           0.66282833669620    1.48948821689801   -3.25518454483535
H          -0.07437242905774    1.41135939074384   -3.86252071977616
O           0.92399298813177   -1.46395549396837    2.35836553695943
H           1.25131252152713   -1.17767268695163    1.48736991323266
H           0.60242114579867   -0.06716005799268    3.18819312753940
H           0.07014232041628   -1.86276388193325    2.14268877118684
O           0.13673550419457    1.77064783690417   -0.65857811918459
H          -0.82254290672907    0.49592165360200   -1.33509959319620
H           0.71690681479368    1.02645793255139   -0.39758396807288
H           0.40687287459779    1.98293257780499   -1.57762698553565
O           1.47742261620465   -1.06326753172651   -2.79317223077389
H           1.05183435224138    0.59075882080218   -3.19454370940173
H           1.60028519687458   -0.94827402353978   -1.83831035252171
H           0.88104632342207   -1.81802356851347   -2.85097433869927
N          -1.40748071822002    1.00691841472166    1.47024547597109
H          -0.84056364535280    1.03755290753491    2.36338000464863
H          -0.92981463189129    1.56218988640916    0.74229569558226
H          -1.40501889080079   -0.03502196942232    1.14177882180674
H          -2.35477619984040    1.33926228352651    1.61683026874024
