    26
        -50.45201935  Gyration_radius:  2.50097167548 Dipole_moment: 2.544
 S           1.05966780121412    0.86098503148330    0.36819060047467
O           0.04307717469264    1.19568076569034   -0.62688315101433
O           1.67599073817591   -0.43434071813385    0.05843273274000
O           2.20564456869143    1.90283190073409    0.26301025987979
O           0.51027182564635    0.88340539644510    1.71430668828464
O          -1.90963022256841   -1.94318176168908    0.27108348194161
H          -2.54453774213896   -2.45365723330234    0.77593707989245
O           1.15782958343766   -2.72882582999188   -2.03703798892511
H           1.99439059328535   -2.25563766452771   -2.04894940532215
O          -1.96751653556648    0.53352465468018    0.99540131226271
H          -1.67364260218116    0.95445697364971    0.17148474339205
H          -1.99099579598858   -0.99084130018222    0.59066770942106
H          -1.16084884151467    0.61972803537973    1.54933483565452
O          -0.67788957662228   -0.86954141357751   -2.14893653146148
H          -1.39568291383297   -1.21524717939220   -1.60684088353530
H          -0.35397131768453   -0.06426604042295   -1.68995894456622
H           0.46638207934724   -2.04668996984271   -2.26242620016195
O           0.57718438575788   -2.59928184497273    0.39635087325132
H           0.81494484866234   -2.85833980899840   -0.59449847625433
H           1.07099870350718   -1.64946745050791    0.41669873001688
H          -0.41906774727124   -2.39298074215026    0.39657857991510
N           0.44047062059110    3.66402858056495    1.04788036448578
H           0.37066644359441    4.57072995845665    1.49216708031097
H          -0.21705311000345    3.62603474143941    0.27913313939740
H           1.74619967479217    2.74640584999765    0.51458255979258
H           0.17711738396664    2.94448708916097    1.71429080013125
