    26
        -50.47393308  Gyration_radius:  2.40332532143 Dipole_moment: 4.921
 S           0.78277422156864    0.92624311686339    1.14758243647173
O           1.48462299081972    0.15687026555555    0.10375980293610
O          -0.40665856354386    0.19689189790251    1.58509856780241
O           1.75266381120824    1.02872975792072    2.35663032500646
O           0.47978291302262    2.26832476422687    0.71204792008639
O           0.40373140065118    0.41651819663910   -2.30818501475439
H          -0.11975921298277    1.22964003417233   -2.19843917410725
H           0.96803846042512    0.37806118928857   -1.50498675422632
O          -1.13589226535261    2.44239909593414   -1.28920240376227
H          -1.29416907523703    3.36718871116188   -1.48453551210914
H          -0.51379231427709    2.43304768116037   -0.51169532904970
O           0.33350115732280   -2.09114636222094    0.57585274892047
H          -0.22072822751414   -1.60055304674008    1.20994109654025
H           0.91114965458580   -1.35625097167033    0.24737938628977
O          -2.47916905597554    0.40727784596236   -0.03480776681173
H          -1.92377654229063   -0.74538963908475   -0.92142577084956
H          -1.82820929360707    0.37497068661626    0.70355272459179
H          -2.25792935956796    1.22391276830263   -0.51535577093776
O           2.46159701699107   -1.53840857394777    2.33351698213631
H           1.75015105355560   -2.02816006176754    1.88887333046411
H           3.18282569466642   -1.48001660948603    1.70171477273231
H           2.02333627973471    0.09925071854552    2.50858898768832
N          -1.27318580684379   -1.40511064084752   -1.46850271381186
H          -1.77526287064029   -2.01902459492141   -2.09877723251040
H          -0.71201002650360   -1.93361357463892   -0.75944499584484
H          -0.59363203035786   -0.75165267494502   -1.97918061285584
