    26
        -50.45201957  Gyration_radius:  2.50184419366 Dipole_moment: 2.544
 S           1.40972197797420    0.04242441940495   -0.08905192426680
O           0.61330558289668    0.95355095441295    0.73024747304822
O           1.44402402076338   -1.29307634475155    0.48473570514337
O           0.91232974484323    0.02433207135067   -1.46977201515878
O           2.85501461195280    0.60220392277080   -0.17486161473586
O          -2.51948830229447   -1.07472465336432    0.01058638977886
H          -3.14744594850531   -1.78250393721772    0.16312550232715
O          -1.55945105170288    1.25557419495882   -2.99109133478682
H          -0.67005910394055    1.51397204056214   -3.24805224060456
O          -0.74006613808551   -1.03291011357080    1.87976645443366
H          -0.50306235202190   -0.09144205088679    1.85850044583564
H          -1.86474298197272   -1.10480037726973    0.77620586031930
H           0.04601558388658   -1.43400392717532    1.44899616531561
O          -1.67865430526905    1.68848760831085   -0.41450273944232
H          -1.67035436541323    1.58667163395062   -2.05725876216194
H          -2.24590048386136    0.98328602445432   -0.08350864994920
H          -0.79454595057518    1.53538942990741   -0.01588512342440
O          -1.15901799936170   -1.07950052464299   -2.17577758832259
H          -0.19166835009328   -0.75203626415649   -1.85207919843447
H          -1.72591590264303   -1.14182993121222   -1.33338225678098
H          -1.45416276730999   -0.19113284042371   -2.65330277288538
N           2.99514775137261    0.16049206783328    2.39768044190727
H           3.15355770220420    0.55855745021993    0.77139813088461
H           3.67073237431064   -0.00083216455040    3.13380930351586
H           2.28219332251276    0.79120936417693    2.74197357294842
H           2.54249331029684   -0.71735805308281    2.16150077550054
