    26
        -50.45462501  Gyration_radius:  2.43344867707 Dipole_moment: 7.040
 S           0.44207905137589    0.77749742667588    1.73280606613864
O           0.26752012087817    0.11653900751128    2.99638833987770
O           1.37691199507307    1.92621003116089    1.77847093222454
O           0.81446123358169   -0.11728733711017    0.65125808245613
O          -0.91964456853176    1.44413150831023    1.29805467126465
O          -1.39042806509185   -2.40137620903043   -0.17374935280957
H          -2.17106164205996   -2.94109431462794   -0.04022786757847
O           0.42073358106779    0.66993794093371   -2.40279734169120
H           0.65953074574057    0.70818048411558   -3.32978221294799
O          -0.23349526039094   -2.35394279711731    2.20294156843992
H          -0.94468304728107   -2.34875767501852    0.71211832520482
H           0.66308997508533   -2.68431196934200    2.11557711807148
H          -0.13208182767311   -1.44493100865047    2.56432222197068
O           1.00230592075643   -1.67628608414345   -1.43880260865503
H           1.15407017108736   -1.22779024517386   -0.58464694982135
H           0.17904971173499   -2.16267339721270   -1.29016512550216
H           0.69434413514772   -0.24156750594808   -2.08232716198125
O          -1.83501982853445    0.19926135955666   -0.76518774622416
H          -1.15930196530948    0.39538152879932   -1.43083204555674
H          -1.72143369981900   -0.75181962881288   -0.55315462552426
H          -1.33854394954028    0.91961070468395    0.55019758337364
N           0.84189148909756    2.65571315623305   -0.54190693251110
H           1.42653284520088    3.39254441012103   -0.92258479424606
H           0.81877107378010    1.83251172488016   -1.17861546908754
H           1.19621014451758    2.33229566250989    0.53482555915981
H          -0.11180833989321    2.98202323669602   -0.40218025404508
