    26
        -50.45201941  Gyration_radius:  2.50169844171 Dipole_moment: 2.540
 S          -1.41401003415212   -0.01437040973848   -0.02889329190039
O          -2.86947001683984    0.17782911799573   -0.53352536484485
O          -0.56697303899144   -0.32148338080423   -1.17959296433311
O          -1.03006246936122    1.27233835333743    0.56338047916949
O          -1.38222078391927   -1.08606350083940    0.95300448184879
O           1.29470111198630    3.35639368592046    0.10946839744981
H           0.38423051658148    3.62600880300277   -0.03937209762280
O           2.52559396373832   -0.24974175614893    1.02860067008692
H           3.17327173484733   -0.62853453756997    1.62489495426393
O           0.99398776789366    1.62839648535220    1.89896314882296
H           1.23703725902932    2.44922050853491    1.28961607642546
H           0.05120865338749    1.39099273620701    1.44900323909801
H           1.62757473179468    0.88183072682351    1.62295952246545
O           0.90360959163391   -2.07266575429647    0.18749601848566
H           1.93551551838856   -1.00982422522756    0.72854123156989
H           0.09142269897865   -1.90931374739541    0.71469139237916
H           0.65150767237587   -1.68532312302236   -0.66658512411990
O           1.61534253086637    1.20036461355824   -1.33587535836784
H           1.47570994344822    2.65141119334527   -0.57195288807744
H           2.21728071403417    0.65617370410031   -0.81614119446661
H           0.76832698424442    0.70559634372659   -1.37675037791152
N          -2.79012859002738   -2.35066923218586   -1.19185170213512
H          -3.08897850700705   -0.72322757256738   -0.88871793402755
H          -3.39811639035702   -3.14110302721141   -1.36473220166306
H          -2.05894662559213   -2.34228134276236   -1.89185127128424
H          -2.34741493699028   -2.46195467212338   -0.28477786131143
