    26
        -50.46728906  Gyration_radius:  2.4938624192 Dipole_moment: 4.081
 S          -0.75735769327786    1.18990741461078    1.49663847872036
O           0.46979178860328    1.11665748250800    2.25449280244527
O          -1.49437587063437   -0.05213974332152    1.40731458625302
O          -1.69263465405321    2.20806913168603    2.27845744751387
O          -0.54501642890838    1.78020841138454    0.17147471765783
O           1.22052965206998    0.65495344520175   -3.08779150666543
H           1.54943996118440    1.48967690769288   -3.42399953930834
O           1.31091580748282   -2.02145010048179    0.30241759257233
H           2.02605466550154   -2.65857553712921    0.32370429833812
O          -1.26667915079113   -1.79290811994556   -0.59769687783600
H          -0.34365327915859   -2.06004389743448   -0.44192783356069
H          -1.50490261642230   -1.27464835995238    0.19859369022907
H          -1.05291753608360    2.82158524788871    2.62449364231676
O           0.45636649635129   -1.46555316068476    2.71411330462773
H           0.64726043792998   -0.50399418084067    2.69662353140601
H          -0.49977507992141   -1.49905579050933    2.59517920434320
H           1.04093614063373   -1.86848980358541    1.25055792230094
O           1.82356858459201    0.55276892334559   -0.53745767612266
H           1.12763106242461    1.07166879757063   -0.10506414436425
H           1.72440025638657   -0.36085458207259   -0.21441887767823
H           1.58686797952246    0.57248322728366   -2.16575172539661
N          -1.18590538483094    0.42569764049479   -1.97661813243216
H          -1.25976336403223   -0.56268718422529   -1.57273187908454
H          -2.02692131738938    0.68761666199505   -2.47734570405344
H          -1.02805466639937    1.04980901946823   -1.13424487303495
H          -0.32580579081811    0.49929813909623   -2.57901244902765
