    26
        -50.46728898  Gyration_radius:  2.49335818809 Dipole_moment: 4.060
 S          -1.61275036944753    0.74790634279541   -1.03181309770447
O          -1.86381029323350   -0.03742155844830    0.18031482596658
O          -0.70656660972576    0.05994796178436   -1.92596994872690
O          -3.00635835110024    0.83336717135788   -1.78869198916203
O          -1.24570952453581    2.10998941482390   -0.72241910683978
O           2.26936130059897    0.86293224632822   -0.06458738799187
H           3.10081266293965    1.27925464058362    0.16587251844510
O           0.33752598586751   -1.42415021572919    3.05060125235090
H          -0.26238821737659   -1.36482132217235    3.79529751295634
O           0.21181012859671    0.85977917345577    1.76758477685628
H           0.96659648364063    0.93341728527829    1.15603981965612
H          -0.58093222701400    0.78467870766531    1.21435600156638
H           0.38510263475884   -0.50595654926852    2.66878719495077
O           1.31633507212541   -1.47792955647555   -1.12285182303731
H          -3.40556916031277    1.58465131158540   -1.36223613816746
H           0.62131317308168   -0.98368116704686   -1.60458928944308
H           1.85658558220073   -0.78446912203543   -0.70480001335636
O           1.05220915568303    2.16020054780293   -1.98569689683409
H           0.23503575780903    2.37849879270968   -1.48984285449426
H           1.87474711253553    1.40902128051872   -0.80040096289809
H           0.77098397041103    1.43890822863676   -2.56033903909870
N          -0.47044080200520   -2.20704098335211    0.63984561033578
H           0.34783700471708   -2.06375053842461   -0.03484569002520
H          -0.13930056162769   -2.08097737486916    1.63111491503539
H          -1.13460507681898   -1.40735575056509    0.43153994389473
H          -0.91782481199678   -3.10499896666189    0.49772987583234
