    26
        -50.46728892  Gyration_radius:  2.49309231612 Dipole_moment: 4.058
 S          -1.06434468454044    1.37754697039270    1.09067099903298
O           0.13793858129235    0.79343368432989    1.69255714916308
O          -1.85265879682921    2.07020989541458    2.28280756385274
O          -0.74007305610246    2.43557216667660    0.16262751774609
O          -1.94084099150957    0.35288334960159    0.56543082403025
O           3.05386357118001   -1.40241700428978    0.39648855427012
H           3.78346779763092   -1.07615617861591    0.92490915814708
O          -0.01253734599329   -0.23369487271539   -2.41821745284468
H           0.23795921110039   -0.22725688440609   -3.34288331998997
O          -1.09675551888665   -1.91658461240194   -0.54783786292221
H          -1.59266148526726   -1.16899061238063   -0.15467475121625
H          -0.66513278001199   -1.53175717370705   -1.33089491808395
H          -1.43003910452294    2.92214660463820    2.31728134251188
O           1.77302276719824    0.68901211936353   -0.53304357663262
H           2.67526147710855   -0.60411183016696   -0.06226961287648
H           1.17896054853790    0.41632996421343   -1.25534592823691
H           1.20182411688815    0.97021424114836    0.19821835267292
O          -1.95665291005282    1.45456984202801   -1.94355119049823
H          -1.47707922440769    2.01532150716914   -1.29784012129890
H          -0.75564179623958    0.42512530929155   -2.32252739400415
H          -2.53950205542747    0.92901794119512   -1.38353985919571
N           0.62285405465401   -1.76540299575403    1.41441677676099
H           0.46788458187945   -2.37337924753040    2.21000832354328
H          -0.03267040695152   -2.00428983170932    0.60275434832230
H           0.40177361761217   -0.75588034466325    1.65099996098603
H           1.62177983154701   -1.79146200718111    1.08345512674941
