    26
        -50.45462503  Gyration_radius:  2.43342752363 Dipole_moment: 7.040
 S          -0.32462241379118    1.76248496871873    0.76829698039247
O           0.82104868072070    2.68774348631851    0.93290891052919
O          -0.13506943182199    0.95140255176826   -0.42132925957624
O          -0.16910942586146    0.78219007377477    1.99403694661540
O          -1.60771940275789    2.40560529585517    0.83166022851460
O          -2.11538226580225   -1.64320842435081   -0.74526224411802
H          -2.88753729874045   -2.17457656526916   -0.54525359816963
O           2.07431163040218   -1.32801138308396   -0.57644226089794
H           2.75546596570818   -1.85310062921922   -0.99844832419565
O          -3.03107243075092    0.83706090347071   -0.74888642387647
H          -2.83376460999037    1.23655269973059   -1.59869446572579
H          -2.42687919790493   -0.70034480989885   -0.73274804243100
H          -2.58346180539252    1.41418148077091   -0.09029032976096
O          -0.16146532154531   -1.64408726360806    1.12392627404638
H          -0.89357274930992   -1.67710137593251    0.47178449950756
H           0.65117269418738   -1.66309419240180    0.59726795496500
H          -0.25247848494011   -0.17127030188799    1.68752150180610
O           0.12814976773164   -0.89845022179596   -2.24976873952978
H          -0.63403301175449   -1.43076384307832   -1.98114565562663
H          -0.01434490563469   -0.05258611193643   -1.78293638493545
H           1.37035916447187   -1.17150448420781   -1.27532149256236
N           2.49248812420189    0.84599290550374    1.06171687161739
H           2.30096802532002    0.13794377597793    0.32310473834914
H           1.77084790998534    1.77055757277877    0.94126824329530
H           2.23856759853452    0.44827314282322    1.96328752683799
H           3.46713321473700    1.12811078918011    1.04974653492779
