    26
        -50.46728904  Gyration_radius:  2.49335782721 Dipole_moment: 4.076
 S          -1.06609823466343    1.23154357825136    1.25334522498683
O          -1.42280063721556    2.23222128552743    2.43400414119094
O           0.16629826716745    1.74843323176922    0.65052574484642
O          -0.85003768396281   -0.06063508666978    1.86780466168370
O          -2.17846344448334    1.29015104816272    0.33417868459604
O          -0.87669719117348   -1.90717749112596   -1.22258360158930
H          -1.18025819941635   -2.49225375504512   -1.91778480929834
O           2.57067180990969    0.53435302919385   -2.13441240295583
H           2.84953605089584    1.36619282090920   -2.51944170766910
O          -2.82960333653153   -1.24978380240337    0.39261210238168
H          -1.67135683052547   -1.71034330570261   -0.65235706102157
H          -2.41220563439446   -1.35409364453554    1.25542467257470
H          -2.79208942440038   -0.28115817969678    0.24523693381045
O           0.82334599671245   -1.90821953658940    0.92571644621085
H           0.19247889036554   -1.35619255998711    1.43238225636215
H           0.35618501566380   -2.10314327633386    0.09421723986463
H          -1.90202384300053    2.90936471697289    1.96793604058638
O          -0.03676354258817    0.63614309168128   -1.87023791741521
H           1.57625382038672    0.53588816165074   -2.18060616362655
H          -0.38514020686234   -0.25936827449466   -1.71009491048286
H          -0.17915458810359    1.13467784863307   -1.05086723833562
N           2.28372126353017    0.21509067049244    0.49127672331430
H           1.49151316226023    0.90254113463898    0.64551570736072
H           2.57901498336868    0.30738960528977   -0.51485290446768
H           3.05023207785581    0.38559951857920    1.13160843729936
H           1.84344146078763   -0.74722085930921    0.65145369984117
