    26
        -50.46728906  Gyration_radius:  2.49361182532 Dipole_moment: 4.062
 S          -0.58851925172863    1.73436609364918    0.93377158402496
O          -0.53489558660321    3.09631865792044    1.74895747210593
O          -1.97530387212468    1.33123280606962    0.92690630177397
O          -0.02944695578125    2.01904903510551   -0.37023395968941
O           0.24990901014556    0.78979427724238    1.67823189084059
O          -1.11586017762490   -1.06817596261586   -1.87410474144073
H          -1.61704445769811   -1.67427651840356   -2.42118675757117
O           1.45816855856079   -2.84631260051955    1.10733234753162
H           1.48677796884973   -3.18036175456167    2.00486923695001
O          -2.31546003587996    1.25019981494156   -1.67213621419352
H          -1.58240015282229    1.86208116531597   -1.80524821630751
H          -1.63243683006660   -0.21489319836656   -1.85198934439018
H          -2.42688171032373    1.24787502595575   -0.69792759782998
O          -0.83098202972516   -1.60010831864030    0.81492497104836
H          -0.67991714310383   -0.72376236567110    1.20168864066521
H          -1.00648570234707   -1.45483885697096   -0.13216433295905
H           0.53044036421136   -2.51065918184985    0.97405794984745
O           1.28891665867885    0.24413105630800   -1.85798949549214
H          -1.22555371619394    2.95861908191096    2.38897747536008
H           0.54996356001119   -0.36595040876047   -2.02938203232968
H           0.86414908768025    1.02966956749708   -1.45561233375293
N           2.26163856123944   -0.38793776252116    0.48385171780361
H           2.12611624996016   -1.40482403076835    0.71974132272726
H           1.53629525807084    0.15641035908278    1.03290243586393
H           3.19995744412390   -0.06863405426989    0.69414373571513
H           2.00885488050933   -0.21901191710325   -0.54238205625844
