    26
        -50.45262174  Gyration_radius:  2.52476854813 Dipole_moment: 4.449
 S          -0.04429006699015    1.43084039189750    0.34827996443705
O           0.71029193212187    2.64762081691132   -0.29186439267832
O          -1.20945099203485    1.92148897047862    1.04603998860665
O          -0.37992778876181    0.52085377418221   -0.74389158438687
O           0.93264397386759    0.80161989654029    1.24229942290194
O           0.37992804634985   -2.82728432184927    0.73625365866191
H           0.55150619513619   -3.46437942071110    1.43126911200107
O           1.66847961132062   -0.41979326781418   -2.11733273876903
H           0.99345552897300    0.21742452242216   -1.79862278535231
O          -0.42343003284240   -2.07431751835214   -1.90773222440683
H          -0.26111221091378   -2.61280058954220   -1.12447552366407
H          -0.75025191347424   -1.22441226838841   -1.58143377805986
H           1.12293374908941   -1.17712122992438   -2.41513883775065
O           2.20350251280120   -1.06424999452038    0.23720245189845
H           1.73995988948138   -0.23118525829439    0.71037769442437
H           1.56425348327340   -1.83241045538849    0.41525835063869
H           2.11407446142325   -0.83142559077486   -0.79875185934984
O          -1.53605313548827    4.02592351912721   -0.47638324371032
H          -1.70515127320114    3.27572371097407    0.13118673104297
H          -1.58828787585298    4.82313829063790    0.05578428617398
H           0.01400491725445    3.28312849541081   -0.56166919995741
N          -1.31480489077394   -1.00345711897497    1.54923567044655
H          -0.82373536774564   -0.41844832856066    2.21687778402154
H          -0.32045187754412   -2.18411407488240    1.08666172841839
H          -2.25428821131423   -1.15084880624885    1.89874187136482
H          -1.38379868415945   -0.43151413437381    0.71182745302381
