    26
        -50.45262172  Gyration_radius:  2.52482773275 Dipole_moment: 4.450
 S          -0.72308854825501    1.15069537566845   -0.56865910192318
O           0.69705144794214    1.33894442557727   -0.88065341954445
O          -1.46700053744081    1.29456744516827   -1.94180292560887
O          -0.95536978593584   -0.21459157360864   -0.10444580649822
O          -1.23430432553400    2.14666736557418    0.34338983114036
O          -0.09130921218377   -2.12684939131595   -1.70585414882811
H          -0.65936147274479   -1.40159623802814   -1.36732744287392
O           2.40311230609704   -1.19842784756322    1.21242734456180
H           3.29467496992747   -1.06566718054960    1.53788061064121
O          -3.60834348674630    2.28331145253303   -0.75149217518801
H          -2.87298453215139    2.32247274687445   -0.10477924128352
H          -3.82942376588014    3.19241834208562   -0.96621622260478
H          -2.38467552854435    1.56177555824247   -1.72287744984079
O           1.95247589099635   -0.74908550022083   -1.29316646565297
H           2.20682609087432   -0.99582421632821   -0.34194452602632
H           1.16120711740869   -1.40516661186553   -1.57363586140359
H           1.46011996303045    0.18897653734535   -1.19085635929588
O          -0.01524738208394   -2.70217437721190    0.90567361111777
H          -0.53194006415041   -1.88637260900548    0.85005574468785
H          -0.06991470937416   -2.75089084815968   -0.95086356536880
H           0.86041623583451   -2.43951358363005    1.21224955124028
N           0.84290354447818    0.76866368175426    1.95804306391995
H           0.64830856879446    1.07283505547115    2.90467379631509
H           1.11579349067275    1.58432020722982    1.42013759673273
H           1.83629078826409   -0.44164283712939    1.57714027467245
H          -0.03621705328852    0.47215463109107    1.54290329691275
