    26
        -50.45262173  Gyration_radius:  2.52480828843 Dipole_moment: 4.450
 S           0.41451532307870    0.69537944983835   -1.23082734874566
O           1.76131211476352    0.48346151583486   -1.70663875403643
O           0.33652609309579    1.70645831552346   -0.17194196048390
O          -0.45224405733239    1.26585491958432   -2.40680723235379
O          -0.23132884608616   -0.53872464135000   -0.79108647318863
O          -2.71229604421182   -0.28369549313780    0.07282649750652
H          -1.96121499634994   -0.33303681104037   -0.55708735232986
O           0.01294463625252   -0.29170716037640    2.93180758615159
H           0.34063348289621    0.02898331273059    3.77332471343463
O          -1.43169662098294    1.31137908660096    1.50850366628864
H          -2.09965693420090    0.69386829925735    0.95362264915847
H          -0.93687585301963    0.69755251597541    2.14788163685740
H          -0.69542097964598    1.57574443286269    0.78689039944600
O          -1.28454180267276   -2.21469165010206    1.25188650296413
H          -0.87763859652578   -1.81117953875679    2.02736880273001
H          -2.62549810492321   -1.12102048904648    0.57402128723458
H          -0.74637444576513   -1.93894683485842    0.49694971103754
O           1.07615036245750    0.06975470886829   -4.19930154205551
H           1.57074045144137    0.64650829464365   -4.78597443498948
H           1.56254100623647    0.05689823137137   -3.34856414541045
H          -0.11311059800848    0.83855942952108   -3.22160062263912
N           1.92777555191758   -0.32736106392503    1.14532739016539
H           2.13000851796798    0.63796641130673    0.90785924444925
H           2.80914827939281   -0.82405484840965    1.20000236713020
H           0.80456957699667   -0.33718157669468    2.30069779271272
H           1.42103249324721   -0.68676879624317    0.34085963897391
