    26
        -50.45590510  Gyration_radius:  2.44293347006 Dipole_moment: 7.042
 S          -0.31463191329366    0.96493807363795    1.49532939292553
O           0.23291455160302   -0.50639377802589    1.36915432634307
O          -0.04523424612176    1.56470985602400    0.16158771177807
O          -1.71836328183341    0.91948411607738    1.79642842209893
O           0.55169079193880    1.56861906049409    2.49376697416692
O          -2.20090432676454   -1.15002666337590   -1.69377315729178
H          -2.98213174221423   -1.43496000249729   -2.16977249576387
O           2.80446027151514   -1.00075412489513   -0.40302498960255
H           3.41293203146799   -1.08685380167363   -1.13904319635717
O          -2.64119537835675    1.20497358332449   -0.65475385310172
H          -1.84084777923486    1.70968743341840   -0.84569510322622
H          -2.41938880981078   -0.24489423532534   -1.32697929959404
H          -2.57352576740440    1.06644397274967    0.31364460920086
O          -1.41877456753920   -2.36467758404892    0.56538798494834
H          -0.47640600458740   -1.16679071376393    1.15804672310289
H          -1.77699586227858   -1.97443550309042   -0.26188610214046
H          -0.81039990393554   -3.05883048665533    0.30359083448550
O           0.51111354358929   -0.37334596484200   -1.60229193048744
H          -0.32116118309417   -0.81472849449089   -1.81488672815739
H           0.26157205470606    0.36022731180081   -1.00477036847933
H           1.90578964644317   -0.93473141860589   -0.80295959406956
N           2.43206750570060    1.35552294769929    0.81027401534300
H           2.70758896929368    0.38766857951634    0.50039719654471
H           1.60391322059757    1.64132216675824    0.22414312648836
H           1.91272267040864    1.35393424653110    1.74798928752799
H           3.20319550920434    2.01389143325954    0.78009620331574
