    26
        -50.45262173  Gyration_radius:  2.52478389769 Dipole_moment: 4.449
 S          -0.24358449183640    1.11444246701108   -0.93222016304306
O          -1.20218950215128    1.25760183121161    0.16785562796651
O           0.46534621596288    2.50909819828329   -1.04212415290896
O           0.78765101084649    0.14453143431636   -0.57254286023568
O          -0.87810161423700    0.81478835547588   -2.19428340410689
O          -0.94545333966289   -1.96184129512013    1.98438064629399
H          -1.68808877867112   -2.32856459700700    2.46644209685377
O           2.04361373751759    0.60452993372301    1.70316671512663
H           1.78679049007771    0.70510265211178    0.76127396270322
O           0.79804066788475    2.20683726001104   -3.64546515761761
H           0.79539941034530    2.57017172799145   -1.96345935530249
H           0.14222120284960    1.53793497637512   -3.35740192350974
H           0.32568100967929    2.82579491853939   -4.20691159474951
O           1.76316770599255   -1.97556819370552    1.05368808160960
H           2.29853915143249   -0.34001525922268    1.75493260284736
H           0.93987475571955   -2.26642854606485    1.46281560170927
H           1.50604050808338   -1.49322757975127    0.25566759355829
O          -0.36258523359844    0.52644134468422    2.37394752074095
H           0.68910254573603    0.61052716218979    2.22497592844860
H          -0.76422441545009    0.91790856790017    1.46934188273169
H          -0.58082159401497   -0.46388374568245    2.32904486647719
N          -1.58704220810191   -1.53251571564861   -0.51830238147403
H          -1.92483066790434   -2.21124664030617   -1.19039135796476
H          -0.70950880587220   -1.16006630707442   -0.87092826620637
H          -2.22210258896104   -0.74151816960470   -0.53037950707325
H          -1.23293516174424   -1.87083478065396    1.01687701720673
