    26
        -50.45262174  Gyration_radius:  2.52474175882 Dipole_moment: 4.448
 S           0.35350482142515   -0.67664939177971   -1.25993957107662
O          -0.51659238182366   -1.58937145997154   -0.51196737923219
O           1.62014412315137   -1.52593180023354   -1.62614188444644
O          -0.25261074574836   -0.19650776431611   -2.47947848000813
O           0.80820757935044    0.40475258221478   -0.38971694027122
O           1.96484127658571   -0.35038489465860    1.85989583460400
H           1.85143141107976   -0.17890137866519    0.90027780439574
O          -1.87097328431402    0.52211539485363    2.21522142434254
H          -2.73257987694603    0.35549765184605    2.60027558177947
O           0.60259134516093    1.94823928540122    1.99055964823001
H          -0.29129951060352    1.71437888564493    2.26638881798359
H           1.76274470268292    0.52188412652472    2.25767421424120
H           0.64958030872606    1.74540827361431    1.04593844335745
O           1.97320098697211   -0.15549045451085   -3.85697359669850
H           1.06709370983424    0.03858885875431   -3.53792725582010
H           2.00965293858238   -1.09853301594519   -2.41806007907434
H           1.87326023983039   -0.64679871191860   -4.67555868447594
O          -0.26157583493554   -1.48263321070608    1.94360094500771
H           0.72328327363982   -1.08436877303919    2.02469791028676
H          -0.89793448031286   -0.72102000803287    2.15654240841381
H          -0.37603522271051   -1.62563892330330    0.89505045340204
N          -2.06390097776136    0.85825417952720   -0.37502329370240
H          -2.27257407824849   -0.04931945895206   -0.77738332323859
H          -1.08918442427595    1.02354136214166   -0.61116197203075
H          -2.61991853255589    1.54937096114026   -0.86462299430783
H          -2.01435735677720    0.69951768438382    1.22783194833681
