    26
        -50.45273910  Gyration_radius:  2.45697528448 Dipole_moment: 6.232
 S          -0.12760563218156    1.32844748562489    1.59117172926641
O           0.81958640668260    0.21446499097507    1.29653140478642
O          -0.73253398636189    1.72422418435987    0.19083969681616
O          -1.18672241379391    0.89062851383608    2.46028557871922
O           0.59796110355718    2.52028663882873    1.96019821544360
O          -1.30609392930355   -2.50135265653375   -0.37352791772391
H          -1.81258683006886   -3.30757891121579   -0.47916402502583
O           1.10370983515631    0.48029597370536   -2.29214731663887
H           1.51627650471010    0.26578339124171   -3.12956536224844
O          -1.89727710973323   -1.59477957474104    2.02973715639870
H          -1.47501340261337   -2.18547281342714    0.55163146668081
H          -1.52686487600926   -0.70072408584345    2.22236879009168
H          -2.82533287789003   -1.53104818776013    2.26395802843907
O           1.25282391985659   -1.55162779634710   -0.65695888953788
H           1.16657308242558   -1.05337367707197    0.17883362280129
H           0.44926905694241   -2.09530817362431   -0.68225088680697
H           1.20379774710909   -0.32963907329965   -1.71274316825063
O          -1.61270818918078   -0.03011407342636   -1.50537832459903
H          -1.19537735518027    1.01227346148925   -0.32831150355285
H          -0.81764134729704    0.14497242292878   -2.02816335383528
H          -1.54096388395919   -0.94417066277881   -1.17448669183138
N           2.03381567159326    1.88038416991001   -0.11623898602995
H           3.03290766398329    2.05591435487429   -0.13253954344677
H           1.50574974452480    2.59145077027017    0.43515399314582
H           1.64385465109207    1.70491073430651   -1.06022526214913
H           1.73039644595118    1.01115259378048    0.49099155911434
