    26
        -50.45334062  Gyration_radius:  2.59272667818 Dipole_moment: 3.800
 S           1.10117775876090    0.94993404197856    0.30957717129563
O           0.46167455660780    1.28255263641932   -0.93028602048103
O           0.32887563955263    1.29530485334746    1.48338615790162
O           1.45988335026389   -0.53370424354378    0.36863439385640
O           2.47387182154206    1.63020198360928    0.38156210934625
O          -2.64904967017834   -0.37082723566124   -0.36791105934285
H          -3.50659050315816   -0.57582626774644    0.00754572804399
O          -0.21330207226347   -2.67668581409433   -2.39857643114236
H          -0.81152871838544   -3.24463341137203   -2.88610007611219
O          -1.93549226839935    2.06750686071769    0.30679258443227
H          -1.19823743927745    1.86223171325222    0.91384978242500
H          -1.50043974003592    2.37067672929260   -0.49659645962215
H          -2.43519221728765    0.55803309646127   -0.08454228758722
O          -0.53563404539359   -1.99983698299105    0.14290757230271
H           0.61464527192110   -1.17636225072398    0.30180828553926
H          -1.31604526214750   -1.41869883574736    0.01957568443536
H          -0.36666981670279   -2.40305546564022   -0.74487170154914
O          -1.06065570898237   -0.17505697270613   -2.68413367049631
H          -0.41352499798179    0.39788410039039   -2.24238591964793
H          -0.43448823519697   -1.74980831532233   -2.65926993716111
H          -1.80395065581504   -0.23063551267241   -2.06660812477194
N           2.81059775877325    0.80158781871405    2.78296332136745
H           3.27833217114176    1.24377341546130    3.56319047479576
H           2.80653881413647    1.38206977727186    1.31622185932349
H           3.04036617366050   -0.18339955737443    2.77305450107008
H           1.80483802485443    0.89677383867126    2.89021204177354
