    26
        -50.45531364  Gyration_radius:  2.49881527484 Dipole_moment: 3.251
 S          -0.05222555217984    1.39411216746982   -0.59184987617832
O          -1.32872837493978    1.77070729518600    0.27888710868553
O           0.98514364219534    1.02455907509529    0.38634713517442
O          -0.46281686082847    0.23835608226457   -1.36241402071767
O           0.32087842725635    2.54534306721675   -1.36789250453018
O           0.95180033853445   -2.79658019448368    0.25706281482281
H           1.59025924974103   -3.45104748794297    0.54366019268113
O          -2.09865299694251   -0.58809758042558    1.51337594699527
H          -2.10724666716524    0.30218348986797    1.12855275369954
O           0.36294084420065   -0.85136860972497    1.85029032083886
H           0.68219917222036   -0.01130202323273    1.25612155284955
H          -0.69571562637006   -0.77191704575017    1.84246328709715
H           0.59159491865507   -1.67143786762836    1.29797546816067
O          -1.68770885400569   -2.03291705774392   -0.63171683601924
H          -1.33127988828171   -1.24170058667444   -1.07899924409085
H          -0.92254209650478   -2.59020051141404   -0.44473385450738
H          -2.17032892473194   -1.21211935564753    0.74241790379851
O          -0.37844212662626    4.18660228270774    0.51729386830351
H          -0.88010477189280    4.92180059724720    0.15745983766675
H          -1.12498160704165    2.68642801605062    0.57507380108517
H           0.10044034213679    3.78084425609134   -0.23857032103616
N           2.01981983811141   -1.09126222838697   -1.40513241817779
H           1.15201235134057   -0.59203690640889   -1.60725158209502
H           2.47525257135840   -1.29682809698160   -2.28551207157546
H           2.59990380185421   -0.43643579118794   -0.89341652006924
H           1.40852885996378   -2.21568498555549   -0.43949272292969
