    26
        -50.45531365  Gyration_radius:  2.49880221543 Dipole_moment: 3.250
 S          -1.33918423120987   -0.70854105427350   -0.03292451943980
O          -1.24997957165071    0.72964415157884    0.27250680860263
O          -2.57255378748019   -1.28466250178799    0.42933798682153
O          -1.30961516215128   -0.79853691151805   -1.62056134629345
O          -0.13887988849154   -1.39719787707785    0.39510776643729
O           1.20788438096178    0.09311570267867   -2.36052540192305
H           0.34538795569114   -0.35059751929172   -2.35840771413764
O           2.41657981023874    1.16120390568418    1.26696723924505
H           2.87070449768118    1.85461399689718    1.74762924249103
O          -3.88742239496904   -0.40979189392805   -1.63044021665699
H          -2.23577139409799   -0.57590645932249   -1.86642967021224
H          -4.46036489043892   -1.09499530258086   -1.98247003908618
H          -3.65841802088918   -0.68269899973356   -0.71484224887438
O           2.40860899709356   -1.18562685619006   -0.41610339091272
H           2.73052602934055   -0.51338085370602    0.19662233117071
H           1.53516594720655   -1.45484116574918   -0.07296028535373
H           1.80225435339226   -0.47765628879178   -1.80383888322883
O           0.76990787055770    1.82093567151884   -0.60982727432551
H           0.99487128882007    1.19296743493457   -1.43581258109841
H          -0.14428929354714    1.40501424991456   -0.22001189065384
H           1.47340871110631    1.62753816263810    0.09550173753722
N           0.42679172236483    0.19238754962636    2.65042722319896
H           0.46657988648327   -0.22330283563118    3.57258362617986
H          -0.34980772083795    0.84322661622274    2.62930715803037
H           1.70830772215426    0.77988865708658    1.88676713112919
H           0.18930717263559   -0.54279957925549    1.98239717138481
