    26
        -50.44928923  Gyration_radius:  2.53711321467 Dipole_moment: 6.245
 S          -0.60910735348598    1.80578107421926    0.94333384344310
O           0.23757420902232    1.99941452283200   -0.35012588410563
O          -1.78300107028408    1.05023927303647    0.59350558432021
O           0.30075828344274    0.92000057637315    1.83462625837153
O          -0.77740951359673    3.06493478399480    1.56797559546071
O          -1.77729704897677   -1.90032003735178   -0.83493798565697
H          -2.05370073957861   -2.79577803430902   -1.03498088182090
O           2.24796689617272   -1.15018803081489   -0.71190914125961
H           3.02119798228094   -1.63528793123014   -1.00146346691942
O          -3.84523496482948   -0.50093536686133    0.04110558249381
H          -4.33953726351224    0.00989871530654   -0.60291274126681
H          -2.58232106385373   -1.41962147918730   -0.51702644766483
H          -3.20094385312881    0.12192331557820    0.42915348295936
O           0.17061143971244   -1.50052480463619    1.04357919230090
H           0.19253675261288   -0.05398391282187    1.56898680305219
H          -0.60282190038237   -1.64675316429904    0.46502354195258
H           0.95306054435826   -1.54979791178141    0.46607746471662
O           0.01095233543974   -0.05354681939423   -1.85713004131108
H          -0.71288548374646   -0.64133196929163   -1.58153555016208
H           0.07887466525930    1.21964617064689   -0.97790532307304
H           0.83732856299928   -0.51480065112475   -1.62615981085803
N           2.92796623792244    1.12452605910948    0.47397751102018
H           2.57501168851122   -0.30525284911230   -0.28127995522607
H           2.29893448822788    1.77686412649744    0.01412575896195
H           2.58380157679288    1.02851099583005    1.42366501050802
H           3.84768460262036    1.54638334879485    0.51223157976319
