    26
        -50.45531366  Gyration_radius:  2.49880947847 Dipole_moment: 3.250
 S          -0.88268900289297    0.04727464991983   -1.23106957078676
O          -1.46199467235699    0.12989239719806    0.12062862816816
O          -1.77293639706868    0.56525765122392   -2.23405899735072
O           0.45509870154888    0.60242408676672   -1.24849411591585
O          -0.67647697020724   -1.50661876708020   -1.50026809489660
O           1.53810156297087    1.12596678499716    2.27170737443044
H           1.59654144391346    1.50392590916792    3.15024284730499
O           1.24680850859867   -2.31988251628075    0.32166694177725
H           0.67062931690740   -2.26850888048864   -0.45691959785511
O          -0.05841619741921   -0.86535480237998    1.87819927522981
H          -0.72706935038464   -0.43630706384687    1.15054529501861
H           0.49149966956698   -1.57994173579463    1.31769137651056
H           0.59330807289809   -0.12349995712934    2.11217642365761
O          -3.15087511973674   -1.63298493494116   -2.31138239307256
H          -1.58045805080029   -1.80403323295923   -1.74947341335493
H          -2.90717806290047   -0.68145178076611   -2.33345600657149
H          -3.33123572151252   -1.88803944910946   -3.21924490622135
O           2.71067575723057   -0.17620968773855   -0.02413409067739
H           2.01799250751971    0.18518209851334   -0.60958656992776
H           2.64919163272676    0.33290418619611    0.79317621156259
H           1.97999780407936   -1.66935595723392    0.15378832157711
N           0.06333526368811    2.59804780019757    0.70020377839081
H           1.01796763357080    1.78145016051320    1.69634878225508
H          -0.91503345720047    2.45972116658099    0.92568679952062
H           0.19990491210498    3.57392714322393    0.46829450255256
H           0.23331021515024    2.04621470124216   -0.14226880130873
