    26
        -50.45531366  Gyration_radius:  2.49879447368 Dipole_moment: 3.251
 S           0.29436827984833   -1.30617693975827   -0.71027013705359
O          -1.18329322005871   -1.37987770833227   -1.29384244599474
O           1.03057308691815   -2.43958719486726   -1.20027979473116
O           0.84125801717147   -0.03226562420587   -1.20789991810551
O           0.11850189742306   -1.26012594786750    0.72677647389636
O          -2.55989043095858    0.69396818505092   -0.07518628774659
H          -2.34668139999988   -0.13608908989437   -0.52946231864282
O           0.54629593404213    2.26633294085302    1.83289136904476
H           0.96943274906597    3.09876368300794    2.04760663527257
O          -0.20295671449998   -2.40006179108594   -3.48356586843957
H          -1.03470023375060   -1.67777396393322   -2.21955880753016
H           0.49488267122119   -2.50523715712118   -2.80002060224658
H          -0.46519001471214   -3.28667051131843   -3.74216041240473
O          -1.47548855884360    0.25005407990223    2.26668669845105
H          -2.38041404685833    0.52397048021776    0.88806045436029
H          -0.91070361891011   -0.43447772187219    1.85979353474026
H          -0.88975413781572    0.99606869397805    2.44382446777099
O          -0.44802734620031    1.94932245725161   -0.52922324072670
H          -1.41184008637258    1.52606184563661   -0.39089955519343
H          -0.09286080821966    2.15932839630814    0.39793410584123
H           0.14303254157014    1.11887157755970   -0.87785315831622
N           2.30746859277707    0.40884697530704    1.32361611468578
H           1.28184040603995    1.57506784870836    1.72129831841028
H           3.04830062349848    0.08350083105931    1.93195369588323
H           1.62855258429938   -0.34716014246420    1.22015501552956
H           2.69729325327468    0.55534578789393    0.39962566305752
