    26
        -50.45334080  Gyration_radius:  2.5935643735 Dipole_moment: 3.803
 S           0.29479395495141   -0.48409387673626   -1.37158072436616
O           0.95104855633576   -0.69965295108095   -2.74108093206580
O           0.98625903254375   -1.25282506345884   -0.37776171101869
O           0.48115171422751    1.01457222521864   -1.14371669241190
O          -1.11979176874455   -0.77479691637188   -1.46336754978581
O          -1.10217454587177   -0.50812108863320    2.40989827034011
H          -1.87602580287391   -0.47974682655398    2.97450965556193
O           2.01104543311401    1.87663531374763    2.32582408773219
H           2.11883941704518    2.12314831939694    3.24546501784445
O           1.69600648567155   -0.75901059139996    2.22415894774851
H           2.07448853948410    0.89130545174285    2.29193278687531
H           0.77756311477497   -0.78155953170175    2.52880645737891
H           1.65153079286926   -0.99747676863775    1.28432751242308
O          -0.32939876701916    1.73763356321801    1.09221001659559
H           0.52661000458096    1.95578346497429    1.53858614563043
H           0.11500241791805    1.34793687395845   -0.20135347102289
H          -0.66779150561264    0.94142617976575    1.55450117415445
O          -1.36913140154549   -2.41638947220847    0.62198923423690
H          -1.47615219095187   -1.87472574574528   -0.18391894462862
H          -0.46918668151941   -2.75244927253724    0.56149423421962
H          -1.25694527692129   -1.24578992210260    1.76120955523393
N          -0.86850760947838    0.69669777532229   -3.88405819008512
H           0.34958917712863   -0.16585120160727   -3.37284325692574
H          -1.28950562456761    0.59136556549667   -4.79772542496093
H          -1.50021317961776    0.33694265971908   -3.17426796118536
H          -0.70910426591969    1.67904181621853   -3.70323825751706
