    26
        -50.46000138  Gyration_radius:  2.49658732128 Dipole_moment: 2.104
 S           0.46036716984356    0.09014481148244    0.94674094280166
O          -0.04132607547481    0.95931150876630    2.14523262098148
O           0.33537477712567    0.94018063164735   -0.24402139212223
O           1.83408936926021   -0.29718787478728    1.18373845453625
O          -0.44952938593499   -1.04612393216323    0.86637967708429
O          -3.10849707024218    0.14714297218528   -1.63649845742482
H          -3.60144393365435   -0.67228007813875   -1.71412984382871
O          -0.11037517828470   -2.35145630986627   -1.40246845611649
H          -0.35967884978155   -2.08919386757031   -0.48972160724410
O          -2.68032686976832    0.35155873462601    0.95448169010910
H          -1.91640411206401   -0.25918976843405    1.01510535859312
H          -3.02460543620530    0.32379152973183   -0.66519041640206
H          -2.40302831501065    1.14114378105463    1.42344490326956
O           2.44550542074473   -1.98682097559599   -0.77416084229284
H           2.28343664306131   -1.32679730641452   -0.06525943765250
H           2.96227992247019   -2.68492736984318   -0.36741925190512
H           0.87337200175826   -2.37020300803371   -1.36858518678520
O          -0.65130443131097   -0.08267057678046   -2.28647749791224
H          -1.65786206972186    0.04305735391518   -2.12779036896280
H          -0.19785793155752    0.42507281384109   -1.49318827737628
H          -0.43112500696693   -1.09884975729920   -2.05413771056836
N           1.98506339582924    2.50384596929882    1.65148807748447
H           1.72538628376788    2.85013958129005    0.73597084809385
H           2.60671124319274    3.17176001997932    2.09006792055485
H           0.63972079433065    1.68916432263662    2.16890741658290
H           2.48205764457949    1.62938678448996    1.50749080650891
