    26
        -50.46000133  Gyration_radius:  2.49594014118 Dipole_moment: 2.086
 S           0.50004553147604   -0.79483339846021    0.48891213973628
O           0.40432292529653    0.65825372628363    0.67788244119473
O           0.10963233040726   -1.42996675912836    1.86293372779701
O          -0.50069251275041   -1.25709099085149   -0.46522419972764
O           1.84507501908172   -1.20056487988785    0.14358061974741
O          -0.34581483347271    0.11309500467666   -2.71555195013856
H          -0.54178984727188   -0.56251248984989   -2.03051608553631
O          -3.13925197650013    1.53303951695513   -0.37636193832668
H          -3.69985925855210    1.21678027138764   -1.08780815505794
O          -0.73259082032740    1.97487071543941   -1.10148756284343
H          -1.71958297650177    1.90323360082503   -0.82786864981274
H          -0.21232507295212    1.51558354267694   -0.31992188799667
H          -0.58712518677080    1.28495302938430   -1.90028747807741
O           2.25098812624930   -0.28628372986596   -2.31838663004436
H           2.72416169384790   -0.97993169305356   -2.78182976136873
H           0.63386835740087    0.06653068628788   -2.80097364345642
H           2.16690985548434   -0.59478140650525   -1.38983127740034
O          -2.60939198254996   -0.65381279355313    0.99313799432663
H          -3.00863693575403    0.76145514134809    0.23129674885784
H          -2.25542125458025   -0.69569649219532    1.88376708523193
H          -1.89449020918004   -1.00290371261148    0.42099923498129
N           2.23123690906022   -0.26823341618981    2.80293993873700
H           2.66051879588382   -0.57280087656365    1.93395392651592
H           1.95964269411363    0.69885072124554    2.67384788302998
H           0.84593071779163   -1.10713994283054    2.45476820305057
H           2.91463989106702   -0.32009339495649    3.54802928661093
