    26
        -50.46000139  Gyration_radius:  2.49602795528 Dipole_moment: 2.087
 S           0.02409734342070    0.64696982266477    0.83745921838896
O          -0.98392521889893    0.25363458676696   -0.15528308651948
O           1.18815897254813   -0.22769510977163    0.76367560635300
O           0.35951223515848    2.05019378147900    0.73017782962972
O          -0.62632837007778    0.38046380372465    2.23380332703950
O           2.12016582889124   -0.33309990422625   -1.70330666371707
H           2.01172151990317   -0.39378644276031   -0.72933296479455
O          -0.20153822480437   -3.38291053816702   -0.92943389510041
H           0.62501243199464   -3.85832624660521   -1.03533874506632
O          -0.04099587349872   -2.43061748170987    1.52118248195134
H          -0.76611492664972   -2.08518187064326    2.04570455059818
H           0.52359019345702   -1.65316147880818    1.32846151531089
H          -0.23542478192826   -3.10341560249451    0.02055272125876
O          -0.21800967281504   -1.11034558755698   -2.09050284749228
H           0.80641767332296   -0.81803562934486   -2.07070395184323
H          -0.25833013000515   -2.06457654491367   -1.71355590856610
H          -0.62861967877465   -0.51522688137440   -1.33574601578429
O           1.69840000523106    2.28603313771617   -1.55319728745905
H           2.08412105129976    0.63621228166789   -1.87183157667582
H           1.16250413625593    2.25718447741345   -0.73073104732692
H           2.41633530627888    2.89663609968893   -1.37543989178506
N          -2.34889766947761    2.20971256785866    1.58441872780412
H          -2.99484227155326    2.88278573450088    1.97764437809387
H          -1.53805361418613    2.69964373049103    1.21737522076772
H          -1.38533748801709    1.02893513424056    2.23355207946647
H          -2.79361879705264    1.74797417012596    0.80039620544460
