    26
        -50.45514691  Gyration_radius:  2.4573984032 Dipole_moment: 5.618
 S          -0.17963885057804    0.98770791119487    1.69434938597508
O          -0.83235701261502    1.75106891382445    0.50886325594980
O          -1.10302659189263    0.97118410000115    2.78507377869480
O           0.25477836544170   -0.29643453836901    1.21411556180073
O           1.04229729262384    1.83708060924838    2.05216068656887
O          -2.07673964869077   -1.59022105394667   -0.86630080130905
H          -2.87696168166466   -1.96032492521009   -1.24259404112415
O           1.86611013004673   -0.82733254726887   -1.60238627682539
H           2.21790898563766   -1.26572615689152   -2.37853963727859
O          -2.95680528086933   -0.10718797677196    1.17429004565503
H          -2.35759184908233    0.12726899197275    1.90609217168117
H          -3.21913270267048    0.73490578521277    0.79321117199487
H          -2.35055862761546   -1.13206398678973   -0.03697814005186
O           0.47290665938340   -2.54239365860959   -0.19132187470164
H          -0.43145917413118   -2.46788134477328   -0.53200994314183
H           1.42505738028732   -1.53788054934593   -1.05666553886137
H           0.47803726668102   -1.92908722803918    0.56195477214682
O          -0.50520770537456    0.49299248143132   -1.66915007625026
H          -0.67091427248790    1.27615354260827   -0.38689295224170
H           0.39410360483041    0.10622371751626   -1.68003596982476
H          -1.10271687540930   -0.26247031086830   -1.50595990305155
N           2.55701501480357    1.51815015249997    0.02093758588125
H           2.35542053330424    2.23532539687923   -0.66394817982942
H           2.33981030146841    0.61171443020737   -0.39036497000026
H           3.54414086248080    1.54509034357140    0.24017414233605
H           1.71552388609651    1.72413791071167    1.25192574580566
