    26
        -50.45514732  Gyration_radius:  2.45728874292 Dipole_moment: 5.612
 S          -0.04551297227175    1.88527766954948    0.56719727097429
O           0.49523403708250    1.07175639926365   -0.48829648357306
O          -0.76375119837824    3.05086850792070    0.15688190623749
O          -0.99331429418808    0.99999644532896    1.42258545116504
O           1.07418418831785    2.27126928827707    1.53677370072040
O          -1.92582812034539   -0.94063861440668   -1.72716642348060
H          -2.71124778439272   -1.28830424591973   -2.15280150952444
O           1.68659570597312   -1.97139127277086   -0.12679030362235
H           1.97078209777297   -2.86485851212707   -0.32504728849539
O          -2.67167399526645    1.48591185038805   -0.89405519999763
H          -3.12423483561684    1.35083294182614   -0.05736892879245
H          -2.00146168251382    2.16811150709686   -0.70662920129025
H          -2.12553344297360    0.00045891274724   -1.51016948042102
O          -0.83481586854605   -1.43390907470845    0.72626627274037
H           0.09822054141505   -1.64603378595932    0.51932306513171
H          -0.90808881620058    0.00554196943154    1.18265272200177
H          -1.27871636219942   -1.37596785707335   -0.14202846011413
O           0.81253389948440   -0.82963982430491   -2.31920792228033
H           0.84930897008924    0.03791942933452   -1.88379569558041
H           1.45114706535703   -1.55287598074193   -1.00232743964248
H          -0.13622014678564   -1.02704406909783   -2.34061686171276
N           2.25939191445770    0.04321023436705    1.92935137471438
H           1.61440943305942    1.38762095910316    1.71800992350268
H           3.25180117776954    0.13210964937089    2.10383071579367
H           1.83133300261522   -0.42949268766671    2.71506663136498
H           2.12545749628387   -0.53072982922874    1.09836215418052
