    26
        -50.45218197  Gyration_radius:  2.45141914237 Dipole_moment: 8.745
 S          -1.56718022989666    0.92988255478094    1.33241140499943
O          -0.67232965636180    1.05525680522382    2.49816221486115
O          -0.86682159529225    1.41683238271297    0.12828056081561
O          -1.68271529355911   -0.64173959513573    1.12879774467306
O          -2.86779056168037    1.47760064955035    1.50164607129992
O          -0.43595943894836   -1.77216424586830   -2.14233687167224
H          -0.62653303876153   -2.57749109873818   -2.62429274262845
O           2.51568357896677   -0.37974956507833    0.17546536117530
H           3.37321688431620   -0.62379965970833   -0.17430486054132
O          -2.57580433563842   -0.28298058534641   -1.26263820686760
H          -2.21313118228483   -0.68420448741288    0.29094730231030
H          -2.24604700622586    0.61427416663808   -1.12493776751366
H          -1.87747504833729   -0.77259700652372   -1.73924790130556
O           0.39890265054331   -2.24250621419184    0.31953174027401
H          -0.31234987859130   -1.79734710758300    0.81021006926255
H          -0.12847008999484   -2.04912711595014   -1.23829772578547
H           1.19759997670120   -1.71160818252738    0.45865982865305
O           0.92273976296979    0.55682532339756   -1.63641245563651
H           0.21529942487343    0.91397402618737   -1.05671773541815
H           1.96680850916432   -0.05464643157118   -0.60205758233259
H           0.51633840633572   -0.19714342271901   -2.09001383093503
N           1.44613371868981    1.78462223484176    1.41394677859353
H           0.55965316185171    1.42066464001007    2.03004352967621
H           2.02208005751070    0.97222434881897    1.11990751153145
H           0.94695752905856    2.14893131682141    0.59585680744682
H           1.99119367459065    2.49601627937064    1.88739075506368
