    26
        -50.45622816  Gyration_radius:  2.46200198883 Dipole_moment: 3.316
 S           0.65206687137909    0.01353812710061    1.99173275096129
O           1.20315452427138   -0.54455522682740    0.76513677421704
O           0.59872513831340   -0.88082095955336    3.09233895655195
O           1.43066348143779    1.28157324704052    2.33834979798738
O          -0.77967676918329    0.50419871854830    1.69043995223243
O          -2.21529074819454   -1.38495794554046   -0.89694600563457
H          -3.10634336381217   -1.73295567294958   -0.84862444204858
O           1.18233451196654    0.51535433939604   -1.66364309618405
H           1.38744524720022    0.08950110142567   -0.80772368509136
O          -0.63600405484600   -2.44735006841529    0.97550064279724
H           0.15953387729625   -1.91086213095169    0.80756760605897
H          -1.71365590579417   -1.78769752045827   -0.14904773441988
H          -0.75031764049112   -2.39986429069972    1.92884714653006
O           0.03382110472001   -1.79984757412396   -2.49747399615032
H           0.91313783483846   -0.22873199251676   -2.23649324308571
H           0.45994320205850   -2.48289891022990   -1.97528750119365
H          -0.84434780874681   -1.67341806325076   -2.10314395389719
O          -1.19944879373559    1.14681080316125   -0.71380753788515
H          -1.74268891376495    0.36667590919122   -0.92571247511526
H          -0.93692334716608    0.81740765477474    0.71837008894980
H          -0.33496531375462    0.99202906761382   -1.17783125936469
N           1.24420388405537    2.76654025408822    0.26795210596497
H           1.54271244911942    2.23533886900401   -0.54466466413917
H           1.40280739710699    1.92434003676202    1.50022678470013
H           1.78332916073718    3.62095164506195    0.31836855541783
H           0.26578398498141    2.99970058237662    0.14556844187550
