    26
        -50.45896435  Gyration_radius:  2.46110355399 Dipole_moment: 4.071
 S           0.00801105729583    0.92778934994897    0.14200073024407
O           0.39597115256337   -0.25589183430345    0.94207710244341
O           1.16569212272215    1.51618274578363   -0.49812903455385
O          -1.05591430156804    0.59116010274557   -0.78172278915191
O          -0.58316954039083    1.94644997423138    1.16627067746047
O          -2.46312646638078   -1.57550264197827   -0.29932333767116
H          -2.14006545123234   -0.72043866955776   -0.66386935787664
O           0.93641818340062   -2.05434373307851   -2.47155318991098
H           1.87262655107636   -2.25182145975922   -2.53117002449036
O          -2.04831466310389   -0.41344241325628    2.08330724831675
H          -1.10208458182823   -0.39809168690035    1.85447102725259
H          -2.31996573102607    0.50742874014050    2.08180416216540
H          -2.61224410478326   -1.36783088194716    0.64733650251298
O          -0.12992047575590   -2.42836519228083   -0.19288549312460
H           0.18678416399158   -1.59003107871541    0.32390530269073
H          -1.18288806551541   -2.22699792711136   -0.28434537224830
H           0.28136064665238   -2.34786715425472   -1.13200868522770
O           0.70903101096423    0.51323578198665   -2.91159801648702
H          -0.23997469395046    0.67241658920021   -2.88946586025070
H           1.03620840514139    0.94943089239575   -2.09783931079784
H           0.83897768777208   -1.08742716796652   -2.70153076897927
N           1.79615277811409    2.26435466256587    2.14671906003389
H           2.05646322469073    1.45729172253548    2.69854947420237
H           2.06595577565094    2.08489627706719    1.18225963640155
H           0.22287058944782    2.21831916662340    1.69777666620692
H           2.30514473608212    3.06909586590144    2.48896369086971
