    26
        -50.45896431  Gyration_radius:  2.46112830328 Dipole_moment: 4.069
 S          -0.78733778863759   -0.20463010143955    0.46857522274125
O           0.55071045839221    0.30517664125465    0.84466180384893
O          -1.73428529338555    0.88338001732318    0.34330858180456
O          -0.70100925500191   -1.03628055111456   -0.71435445512107
O          -1.22536372288463   -1.13106044346957    1.64595977978556
O           1.65085174298998   -2.01590875095545   -1.35918112419219
H           0.68572299754942   -1.82965571606759   -1.31126778411582
O           0.75795943991526    1.67675680957790   -2.79666448490431
H           0.78491058151318    2.63263283158439   -2.72858990414068
O          -1.71608727281191    0.98540874970991   -2.30787278782021
H          -1.72119003766326    0.03041304546298   -2.42790899205627
H          -1.83502315345391    1.09832094195977   -1.34216258439911
H          -0.19759451533811    1.41410803612508   -2.67319206786807
O           1.48191234368120   -2.18788510433338    1.31303086688199
H           1.24732603603169   -1.24293222925879    1.30832344785334
H           0.68257427742181   -2.64146480557699    1.59074888048274
H           1.85739290865331   -2.33563877844463   -0.45545038365819
O           2.14631540215634    0.40528036608094   -1.08632675863649
H           2.07242927450804   -0.64347358319937   -1.31532198698460
H           1.64479327070244    0.91709131722377   -1.82392150517779
H           1.54616512961804    0.46609393910377   -0.24599063303944
N          -1.45323169637410    0.97035819205841    3.14795972796146
H          -2.11798618139796    1.24903484187454    3.85808361301034
H          -0.53762138667688    1.31303224908758    3.40850541110328
H          -1.37263143048350   -0.48109801073291    2.39555306614603
H          -1.70970213898468    1.40294010614398    2.26349503048777
