    26
        -50.45352263  Gyration_radius:  2.60013251052 Dipole_moment: 4.455
 S           0.55228978832924   -0.49646635982435   -0.62381378785975
O           1.13061119940132   -1.22072448113519   -1.85424508127067
O          -0.33234642831791   -1.41574312895326    0.08770808199573
O           1.70922514576145   -0.15059278438968    0.22039732106318
O          -0.15261532720796    0.69525148694461   -1.06605823364178
O           0.85718235774468    2.83010120417176    2.22853480060406
H           1.03252694453664    2.83669707625014    1.24162966934618
H           1.46833414596449    3.45788726875673    2.61846969764545
O          -0.91433327884650   -0.91413607075515    2.54378704335289
H          -0.79851757159637   -1.10756754164214    1.57188706411122
H          -0.92674624596566   -1.76684690200617    2.98367452103553
O           1.51037220699856    2.55975393490313   -0.27584504892768
H           0.77948266713380    2.02015756620403   -0.65077971652293
H           2.24329250846974    1.93600968656820   -0.23140274036567
O          -0.77554532873536   -0.51891011423299   -3.38555133231987
H           0.46120873014394   -1.03326053080178   -2.58852701198591
H          -1.47463195454865   -1.11676303725556   -3.01942258619303
H          -0.81177980640605    0.27298721792691   -2.82865946145767
O           1.26707503437619    0.36378418626048    2.59473228434169
H           1.07817544741974    1.38321403342290    2.54579819108053
H           0.36132216151140   -0.11203669685322    2.72177923826572
H           1.52987891955026    0.10128401184755    1.59336021244306
N          -2.36537281269012   -2.02825991659187   -1.83886228631449
H          -1.70256244034067   -1.88244210852780   -1.07631960625082
H          -2.46458202657982   -3.02643294414966   -1.97399284914553
H          -3.26194402615998   -1.66694508615727   -1.53827840300658
