    26
        -50.45334095  Gyration_radius:  2.59329004916 Dipole_moment: 3.808
 S          -0.55340631884638   -1.37815546520613    0.01906762761112
O           0.81407389729878   -1.20111684926532    0.67589570108116
O          -1.50081229762138   -0.42648869297099    0.52269836909700
O          -0.39343085166431   -1.34742649103777   -1.41871684466743
O          -0.95683701307491   -2.79102629408774    0.45910413032345
O           1.17983395327976    2.11144012164536    2.66964984840932
H           1.37834062389115    3.01388277069925    2.92328349494168
O          -0.15166390634894    2.50413430483059   -0.99726336533412
H           0.10904398868964    3.13020469898881   -1.67437316103813
O          -1.23781377646750    2.09445377674882    1.56834621575763
H          -1.45324299801970    1.16821918458557    1.37381601372711
H           0.22144930943697    2.09368976416324    2.43066304644540
H          -0.98215953140994    2.47347473724337    0.71522985905443
O           1.75445946974394    1.06980549277268    0.30194324926762
H           1.09855101698220    1.57846666396266   -0.22072134277235
H           1.70522262856695    1.44240128555150    1.21740009111946
H           1.24515803440642   -0.24367939545564    0.50305778050402
O          -1.88438853046160    0.78967545688878   -1.98121135594522
H          -1.33394787700862   -0.01730401418398   -1.98645856208883
H          -2.47791757207443    0.66435124276521   -1.23383438923605
H          -0.80599113879067    1.88847082234097   -1.42336627801378
N           0.93076433524761   -3.81714539617642   -0.93765862940887
H          -0.26385766181122   -3.38478011163534   -0.00260298071942
H           0.95969872073979   -4.69045123520621   -1.44716478381733
H           0.78197370471702   -3.04908583800947   -1.58591514372177
H           1.81689978066723   -3.67601056003261   -0.47086858063182
