    26
        -50.45896434  Gyration_radius:  2.46104398955 Dipole_moment: 4.074
 S           0.19188831241341    0.85627242742098    0.33368707780268
O           0.79366414002083   -0.02570706676149   -0.69170496941998
O           0.90927417974861    0.74987497822628    1.58677782557801
O           0.34640011437694    2.30646602979639   -0.22264045536231
O          -1.22855821696885    0.59938523857516    0.45588684791560
O          -2.42951348765780   -0.64017992044638   -1.52569471033707
H          -2.24199549142210   -0.13312534352484   -0.70332203875708
O          -0.73654617981011   -2.98162839513315    1.33158547425302
H           0.00208719746359   -3.49204361970102    1.66755552426170
O          -0.85155296506483   -0.82116774730839    2.80013256398410
H          -1.62360236070464   -0.35203299320216    2.46796864219022
H          -0.82314757567552   -2.18689704595077    1.93005574018288
H          -0.09956383399039   -0.26498026219277    2.50921435713451
O          -0.50257612314893   -2.14012832469679   -1.05723406332496
H           0.13473386062730   -1.33511921038832   -0.93098976151443
H          -0.63211563799144   -2.54175799941908   -0.11948627028221
H          -1.41684135910931   -1.63841558119348   -1.32201607810373
O          -0.70061996041752    1.07060484453295   -2.65830839129733
H          -0.01678013255695    0.68140991512425   -2.08473743721238
H          -2.03899995451960   -0.07480704564520   -2.22524585096728
H          -0.81997861286252    1.96562854811576   -2.33189108005653
N           2.90674527389469    2.11976355921377    0.14274259255863
H           3.31556132655497    1.52062513184843   -0.56262510341856
H           1.33698886286691    2.45666443938161   -0.17584860234700
H           2.61231523821797    1.53289550738070    0.91994400030564
H           3.61273337573717    2.76839993595274    0.46619418623020
