    26
        -50.45741769  Gyration_radius:  2.48317506665 Dipole_moment: 5.476
 S           0.86211090967571   -1.38084735783408    0.08487672429121
O           1.57391647076820   -2.02235712277831   -1.11890264764375
O           0.97258073957058   -2.25186961511693    1.22252725244914
O           1.50216346714019   -0.06612239102406    0.30933673594423
O          -0.54607273670552   -1.15244801707995   -0.29316223435787
O          -1.07047299971634    2.68721564379303   -0.59409296689096
H          -1.99074957011194    2.89180569780589   -0.41739783776909
O          -1.74845603795093   -0.14289347890328    1.80387598073320
H          -1.48739669191787   -0.63251179262798    0.98803112876977
O          -1.09850198464342    0.52639794137689   -2.15747338898864
H          -1.90255776824221    0.20524097306097   -2.56900903058444
H          -1.06410365138698    1.94662065712658   -1.24489386903974
H          -0.86761833210063   -0.14854536957597   -1.45862703898972
O          -0.46438577639348   -1.80813443023152    3.39512589972435
H           0.17483092624667   -1.56145459574497    4.06544058354574
H          -1.45636011243853   -0.73367864152995    2.53806993539128
H           0.06192268460846   -2.11074739647051    2.62142251050844
O           0.03205061959166    1.55068078966803    1.44947780052204
H           0.73895815461712    0.88393909490092    0.99862336011197
H          -0.32755340855611    2.10742937925718    0.68427843160588
H          -0.77765891561787    0.88931871072496    1.71237088606133
N           1.79691868114409    0.13966817901919   -2.50444590622720
H           2.41209490567055    0.29284855391611   -3.29186924360885
H           0.85992463257202    0.44664925371081   -2.74449203685257
H           1.69964600253483   -1.24427773448343   -1.76513121836053
H           2.11476978156626    0.68807306906128   -1.71395981028573
