    26
        -50.45352274  Gyration_radius:  2.60011329304 Dipole_moment: 4.455
 S           0.37438031772136    0.62788072719426    0.63678356627086
O           1.25011625992035    0.53111391505000   -0.52839943759894
O          -0.07501570307888   -0.68045665359130    1.08291006611547
O           1.14918331258126    1.30729227576582    1.78163917283933
O          -0.76616466941072    1.51270227919315    0.34183051118307
O          -2.64126185401909   -0.23531663187260    1.37126758306978
H          -1.72574324459132   -0.59109625491168    1.33659712374870
H          -2.50477331603339    0.71655403060224    1.43044742935275
O          -3.50826086046534   -0.52207395288387   -1.06566444496267
H          -4.44368066925909   -0.31081033803814   -1.06442390378330
H          -3.21829164450301   -0.53904163835165   -0.10640343497780
O           0.18485530894320    0.16332007796966   -2.84204549696438
H           0.65614316177315    0.21250942076543   -1.96401699747892
H           0.70085361232598    0.69731471905741   -3.44981087041581
O           2.07020199896972   -0.88076728767444    2.69561667600302
H           1.24425261577802   -1.26317605496052    2.36374618298457
H           2.73471628259665   -1.05934113359182    1.98375485455621
H           1.59449573251678    0.54044780784204    2.26739995885576
O          -1.87544344179773    1.24076008634914   -1.84736953912639
H          -2.58028774618644    0.51229335181565   -1.62424233892204
H          -1.40704799832837    1.44321608592513   -0.90895228246364
H          -1.12040389441944    0.78619224747232   -2.38218191250402
N           3.42846232114130   -1.08988650872689    0.39136491957030
H           2.70985645272774   -0.50991182393351   -0.04371736286133
H           3.44774909399326   -1.97402427869984   -0.10125819771132
H           4.32110859109184   -0.63569448775101    0.24512818522924
