    26
        -50.45896430  Gyration_radius:  2.46106551378 Dipole_moment: 4.070
 S           0.88744983877393   -0.15118473070134    0.26633544846658
O          -0.20877153583467    0.72766717085125    0.73276081955088
O           1.79392418460448    0.57440868928201   -0.59855778193031
O           1.64978788996952   -0.58575352794947    1.55716804001370
O           0.35306967236226   -1.35590946355617   -0.33499988704560
O          -2.12867908105716   -2.01317053489573    0.22669300589331
H          -1.19685748533161   -2.02408743525247   -0.08968914227066
O          -1.57530876886973    0.50729679594166   -2.90989838441996
H          -1.52332904599078    1.39139175639141   -3.27702637954375
O          -1.06259604599311   -1.11228481026432    2.51812619420898
H          -2.03019354576651   -1.88754817245206    1.19422196581484
H          -0.24368008032375   -1.56559467738912    2.73182587251328
H          -0.79067215222681   -0.32046058364791    2.02111177220104
O          -2.36184846558068    0.35446166485149   -0.49593410351588
H          -2.43055941028888   -0.68774399350533   -0.23741800643404
H          -1.50723662263584    0.62895837631070    0.01830440584178
H          -2.11578042454441    0.40817625146816   -1.49298891232864
O           0.87294472311410   -0.41095236960120   -2.88331211343390
H           0.78257264335190   -1.31130404473589   -2.55521396199289
H          -0.65194014079425    0.12971518458553   -2.95668769490481
H           1.32232134518722    0.05882318651167   -2.15056700526065
N           2.49735376765360    1.85101175458219    1.81575640129948
H           3.37974020133981    2.25381340781063    2.10377983973149
H           2.08179793772223    0.26855458174499    1.85662136043133
H           1.74724973204644    2.44740167077874    2.14020575281710
H           2.45924085912353    1.82431385283353    0.79938248432439
