    26
        -50.45896415  Gyration_radius:  2.46133438553 Dipole_moment: 4.068
 S           0.47544575202299   -0.50355848942877   -0.63276959653893
O           0.81798063915469    0.16492962650736    0.64292827622943
O          -0.91388285157853   -0.91376772495723   -0.63543538069081
O           0.83534501607863    0.32924736883748   -1.76109496562891
O           1.33523030683502   -1.80595675243873   -0.66359095218930
O          -2.17808094878755    2.54070173393140   -0.10431638412421
H          -1.81034877373249    3.41699017884178   -0.23023215142360
O          -2.14226013476735   -1.10820459253442    1.67959378059149
H          -1.91081228220834   -1.16668375085679    0.72488773558609
O          -1.61727230288823    1.19951441558213   -2.27804067429375
H          -2.02098524347489    2.04557517421387   -0.95717076212832
H          -0.66047755185952    0.99680075440788   -2.22383315981533
H          -2.03930563362223    0.34529075991179   -2.14159620885391
O           0.32894534737970   -2.07784451746660    2.06896945654724
H          -1.42553685346796   -1.61992258948821    2.11090653525076
H           0.54673331217228   -2.76151968242366    1.43105471071878
H           0.66107896615502   -1.25091528916589    1.67671129302138
O          -1.16808633604779    1.17677405529856    1.79015569426766
H          -1.62802289212744    1.75317616559914    1.07343860815507
H          -1.71243551911591    0.25103869265193    1.85626336634947
H          -0.28234428578542    0.85452648960956    1.36369019228662
N           3.45432409680518   -0.34153510665641   -0.96057574007604
H           4.29576001554525   -0.44092031890890   -1.51367004238980
H           3.69207030396972    0.10915032989160   -0.08651390132446
H           2.79946758570720    0.25974654839368   -1.45535517704934
H           2.26747027765338   -1.45263346940646   -0.77440456247208
