    26
        -50.45741765  Gyration_radius:  2.48312659797 Dipole_moment: 5.470
 S          -0.60360605808891    1.48553773652214    0.29305770935200
O           0.21680377295811    2.64200946326600    0.89038736191474
O          -1.97746042965397    1.88964238533046    0.17242359625446
O           0.00982187963244    1.15517932638196   -1.01192099363056
O          -0.45409592389627    0.31885932954981    1.18440599414233
O          -1.93097383392944   -1.60144861561443    0.18771592924920
H          -1.44732962523626   -0.95744046739011    0.75768906292957
O           1.65493022335778   -2.34084880892446   -0.70721227170308
H           1.42533761188999   -3.21202668544716   -0.37807358596891
O          -3.85467830243871    0.11221896126840   -0.37378635906413
H          -2.78795014017736   -1.15127243745194   -0.00309527591512
H          -3.25703252516277    0.84330736827252   -0.09878474303719
H          -4.16123711377566    0.34208813844281   -1.25241991454658
O           1.85103908574868   -0.78358309413022    1.44909850197566
H           1.82151051474711   -1.77395321786397    0.08207554581888
H           0.96843254332808   -0.32426579601124    1.36396989070134
H           1.86864250748618   -1.14347902792434    2.33743951790113
O          -0.41037980282688   -1.16647988401445   -1.72588092528421
H          -1.13153022573135   -1.44783747184223   -0.97527748556246
H          -0.23303873505073   -0.13452771478662   -1.50153324902457
H           0.44111611304825   -1.64335355934638   -1.45661538758009
N           2.52486827282532    1.76716221744715    0.14725512479011
H           2.20733366508604    1.54219206037822   -0.78825075304193
H           3.38470281456585    2.29619657275883    0.09458458099415
H           1.17980717096168    2.38951448410617    0.67260634773541
H           2.69496652031995    0.89660873707783    0.64014177057443
