    26
        -50.45352257  Gyration_radius:  2.60010555131 Dipole_moment: 4.455
 S           0.47283217072200    0.81429272321049    0.23347551148304
O          -0.97528296607764    0.75748304957891    0.34532417963439
O           1.11110857725040   -0.32783131318371    0.88322107327414
O           0.89702671113750    0.89870447686363   -1.17496985885548
O           0.97551710756828    2.10741705503699    0.90271942845684
O          -1.66986346202732    1.25633663248389   -2.13165358773370
H          -1.61432355553408    1.06863395292712   -1.16851705225356
H          -0.81716971778986    1.66051840997304   -2.32604196715695
O          -1.43772241062910   -1.08987385267047   -3.23309473705845
H          -1.61492145065196   -0.98610492125588   -4.16982288679741
H          -1.66051353250114   -0.21290182995806   -2.80187903042756
O           1.15896482357535   -2.58313888977763   -0.35520483246477
H           1.08865001674366   -1.76246939094396    0.20788015364297
H           2.01895134409528   -2.96300918544350   -0.16322972341291
O           0.96723143956587   -1.20470197142143   -2.46654015261501
H          -0.00482864332185   -1.24899630166424   -2.82778914528338
H           1.00837749004808   -0.27115430298599   -1.94922829220980
H           1.04292910487706   -1.89013719702527   -1.70021144777056
O          -0.86210049990782    2.12267351624526    2.66166546449242
H          -0.52622539333842    1.37679199596602    3.21945490755939
H           0.32351882990992    2.26302101958740    1.65971848998826
H          -1.39769485981112    1.69622212262389    1.97623159900371
N           0.23935855856973   -0.13340177633533    3.60734161536678
H           0.60953657664024   -0.30328865436882    2.67129305292234
H          -0.35377039551528   -0.91738393455234    3.84875486427321
H           1.02041414638348   -0.12770143293575    4.25110235394267
