    26
        -50.45469726  Gyration_radius:  2.51001519682 Dipole_moment: 5.577
 S          -1.66162697811292   -1.46073933364804   -0.02793546496504
O          -1.38715533881568   -2.66573365553639    0.87615419823062
O          -2.90907029243571   -1.59311697988700   -0.69321759280104
O          -1.75451902254092   -0.26425492011324    0.94585333870574
O          -0.50839829947782   -1.25722944284392   -0.88824418103492
O          -0.35065636583487    2.61196694517035   -0.70769386087652
H          -0.80820388701823    3.45368729596345   -0.72611234228975
O           1.96261748647066   -0.53388377320314   -0.22175408913575
H           1.15867893392907   -0.90906253874166   -0.63073694509619
O           2.15334626609207    1.80389913333791   -1.62289668054196
H           1.26391549417757    2.13251062984050   -1.40655406029014
H           2.76095161310207    2.53024918185374   -1.47863567863113
H           2.24319805138786    0.17546143704068   -0.82837800218379
O          -1.86928558200154    0.79287993082995   -1.91923508930898
H          -0.94811043120756    1.96702909916128   -1.15885364690534
H          -1.25945446945792    0.04045700440862   -1.83960422288179
H          -2.71780651191164    0.43454688154709   -1.64084212113408
O           0.42677380717619    0.95434750930834    1.33330257386812
H           1.09881542597231    0.42663143679066    0.82838223503700
H           0.21489167783667    1.70980072651308    0.75627102941792
H          -0.85759125307062    0.19958961377848    1.14734048707207
N           0.82895503921238   -2.09467724673050    2.02719577317397
H           1.49569525559361   -1.82041051714415    1.31163003659774
H           0.66630382616078   -1.29409780551379    2.62607875078459
H          -0.47128836071746   -2.49765801929706    1.35970899833327
H           1.22902392554630   -2.84219259296384    2.57877655686452
