    26
        -50.45469736  Gyration_radius:  2.5101535358 Dipole_moment: 5.581
 S          -1.31932807142878    1.45822684103993    1.01426239847942
O          -0.68881703791938    1.85873055011564   -0.33880495642244
O          -2.69698241865867    1.80050753122257    0.98356227738169
O          -1.02459500439632    0.05582439868923    1.25473716591288
O          -0.56443101120862    2.29783975602451    2.04855434317073
O          -0.62093383195246   -1.07473572116095   -2.43002375075573
H          -0.93783335374169   -1.05616591060671   -3.33413169002975
O           1.29121854567019   -1.22785286161604    1.00456704178689
H           0.40383560254003   -0.90657033813920    1.25691721588740
O          -2.63747349761748   -0.44775759689430   -0.80997012118467
H          -3.09875451243447    0.39178626385433   -0.71864718622820
H          -1.39415249187739   -0.83113007543832   -1.86509374353780
H          -2.16248470025652   -0.54698967836635    0.03194248489856
O           0.60285786165699   -3.05777036407531   -0.90362768492634
H           1.12707382342381   -2.05308909882387    0.51261247814706
H           0.09697127604820   -2.44433649324644   -1.46368830199778
H           1.18670308967267   -3.54724065678584   -1.48429818316525
O           1.24626322804684    0.40627134257026   -1.07349806042111
H           0.13333660415839    1.30321535060327   -0.61361024300452
H           1.38812734650258   -0.21946627093745   -0.31619452425536
H           0.73638697450413   -0.10317425764815   -1.72850857976952
N           1.87723333405230    1.56819659685640    1.78936112510731
H           2.51027325274570    1.93904836427963    2.48561327255815
H           1.90934324739776    0.55346236477532    1.82239068603347
H           0.44712536449905    2.02212698683342    2.00438855785481
H           2.18903636057327    1.86104296684263    0.87118800849753
