    26
        -50.45469704  Gyration_radius:  2.5098927632 Dipole_moment: 5.573
 S           0.10083754072665    2.15582631889896    0.48500260358922
O          -0.79864171701168    3.15377518664494    0.94451704719508
O          -0.31739941487678    1.74582569296650   -0.94525150490483
O           1.51474266001324    2.72011623889800    0.32013376464444
O           0.17579057677155    0.95380408703900    1.29785712237373
O          -2.33795056777521   -1.22466075346004   -0.69243267038610
H          -3.17712705977252   -1.29844090774097   -1.14908750090579
O           1.32797881708345   -1.37502356244509    0.72990820866846
H           0.95890768090325   -0.57276343115244    1.14769854206743
O          -2.47306658936794    0.81635285858606    1.01020096986473
H          -1.58384323013071    0.72590945736113    1.39173420388092
H          -2.54881031807794    1.75624234429219    0.81782739192792
H          -2.42852348727216   -0.45575107894838   -0.07837886990159
O          -0.85858002895456   -3.00962152429366    0.85324818846368
H           0.69982624761675   -2.08502995286351    0.95573079954429
H          -1.46426096253224   -2.41550472550181    0.37792489074554
H          -0.97294750798553   -3.88283389390051    0.47656456324620
O           0.20244282914683   -0.65320049873966   -1.55114982753531
H          -0.05765731089044    0.78601558094688   -1.21301352319994
H           0.69288669854071   -1.00754699942588   -0.76437724406074
H          -0.71038680560843   -0.97574191479275   -1.44450834503189
N           2.86571981784072    0.76217380523215   -0.63009019008701
H           2.50640186497147    0.56259150892023   -1.55586400145399
H           3.86280097303908    0.92068813047098   -0.69132303618281
H           2.12384828267781    1.94845157449788   -0.04671383538657
H           2.69701099094194   -0.05165356148532   -0.04615772717926
