    26
        -50.45469723  Gyration_radius:  2.50995173835 Dipole_moment: 5.576
 S          -1.11326077685366    1.90606013744314    0.14758668254313
O          -2.22817356587169    2.50335124818553   -0.49764296821090
O          -0.56866082848282    2.80891994156661    1.25797519415595
O          -1.34120435930908    0.58163928016143    0.70009257124672
O           0.04469984318560    1.81097244399345   -0.87165527359869
O           0.00553156822765   -1.50634752958391   -2.27511173874342
H           0.05294331396607   -1.65082252351944   -3.22119547095488
O           0.43617292660358   -1.16910650303739    1.62158093118120
H          -0.34963495778789   -0.61941927702995    1.43520465696793
O          -2.18356147185755   -0.09014948916429   -1.74078767874300
H          -0.81279095061045   -0.97414931900854   -2.12142672105404
H          -2.09079586437828   -0.06801530761515   -0.77371788416983
H          -2.38320666193705    0.82136007258112   -1.97591088634472
O          -0.02787463816236   -3.24263553521369   -0.09670032655854
H           0.22714357549137   -2.04061401087824    1.23876864415792
H          -0.09815911951459   -2.70169815575715   -0.90183889106701
H           0.54720390003138   -3.97947804431467   -0.30602281330493
O           1.60775214187846   -0.14438502774748   -0.51573604606980
H           1.28376834279433   -0.57226720474717    0.31919847883764
H           1.24131071949606   -0.68849382640165   -1.23566605628028
H           0.71310585261151    1.04760457669072   -0.69636814780510
N           1.48406089158484    1.55422779518890    2.13750041490135
H           0.26685049875979    2.33039115940655    1.67515856788790
H           2.17205477256196    1.53298163039773    1.39437452983124
H           1.90638585124484    1.95294751630507    2.96557777292425
H           1.20833897635443    0.59712594208998    2.33676243826848
