    26
        -50.45649616  Gyration_radius:  2.47944764956 Dipole_moment: 4.759
 S          -0.68635754320902    1.70030800893145   -0.00089589440835
O           0.34867054235368    1.24521417467547   -0.96430950732455
O          -0.50458155403020    3.07635400601742    0.33833106923311
O          -2.06013628519632    1.47032202694402   -0.70257909921935
O          -0.63428910405990    0.82166816745420    1.18005212453731
O          -1.08984972228151   -2.27100423956987   -1.14360309727301
H          -1.26502085232820   -3.07496550869094   -1.63396567300015
O           3.08472558965396   -0.83496813579119    1.27247639670598
H           3.33023293278400   -1.18663143048357    2.12994422811442
O          -2.71844294731008   -0.74175674970253    0.43835093091478
H          -2.11084067003236   -0.44480144365115    1.13215698136368
H          -2.45400349977710    0.62729701952976   -0.32159450962035
H          -2.23576478462855   -1.42440297650473   -0.06715468142540
O           0.59617411020930   -1.53648260777548    0.94641150703642
H           2.19894163363847   -1.23696026038453    1.05855484911979
H           0.14124256910718   -0.67705459673763    1.06683083129430
H           0.17053524754200   -1.94048931498356    0.17542457566376
O          -0.88507600607682   -0.21446288737392   -2.77200050811474
H          -1.71417662199539    0.26706417495081   -2.83419008474427
H          -0.31501401410153    0.34531548520565   -2.19864814000734
H          -0.97694884463506   -1.54803747582791   -1.81549542176024
N           1.99484515229412    1.53508336192835    0.96414620985268
H           1.17679754458254    1.54177508904564    1.58881542456027
H           1.50945506760412    1.44233306567181    0.00229116065654
H           2.51974260556323    2.40168982718480    1.02845955706528
H           2.57913944432611    0.65759324994415    1.13219076078068
