    26
        -50.45649620  Gyration_radius:  2.4794774829 Dipole_moment: 4.762
 S          -0.74233364156646    0.54918776024486    1.58471222784929
O           0.39159939995139   -0.40753179595430    1.51137366515861
O          -0.76758873349374    1.32982835728262    0.33595435629954
O          -2.03733113191737   -0.31892487526330    1.62714830269150
O          -0.64069578201690    1.38056339316648    2.74228031646496
O          -0.90106994910207   -1.99057719616451   -1.69707627325264
H          -1.00264660513013   -2.75385665165505   -2.26678624654465
O           2.98302367950797    1.17724405157162   -1.24408651841826
H           3.16129222288312    1.86816403517938   -1.88444966787953
O          -2.71925679464222   -0.12856280436728   -0.84811462093729
H          -2.18828640567085    0.68152472268598   -0.82501525937165
H          -2.16904546475595   -0.79757661655158   -1.29999832296976
H          -2.43446125302104   -0.31022928152734    0.70343795140606
O          -0.61985607763991   -2.73293105013680    0.81146728985376
H          -1.45613035413991   -2.69707342557143    1.28317165721066
H          -0.75241814716143   -2.33972137292396   -0.77899263262031
H          -0.12456769679014   -1.94268411069105    1.12336961069024
O           0.56025496807651    0.37776728763725   -1.77595060137502
H           0.06658267228921    0.75662405614494   -1.01909193437900
H           2.13499548571657    0.74661751575018   -1.53956840229351
H           0.22121866035008   -0.52489491121032   -1.87098139487236
N           1.84341849041979    1.64566930450678    1.07581764017289
H           2.32923291708631    2.07189631115570    1.85872081717015
H           2.44045827069316    1.53983128357382    0.19716728088139
H           1.45186943405278    0.67330729290789    1.34112005573110
H           0.97174183603856    2.14633872020391    0.85437071338081
