    26
        -50.45649612  Gyration_radius:  2.47942142087 Dipole_moment: 4.758
 S           0.41550115260684    0.72280782388432    1.63230197402203
O           1.04916189777616   -0.48031023573444    1.06633895457441
O          -0.14688267524299    1.52154691652612    0.51331998188034
O          -0.80388780594398    0.25878776002304    2.48698820960547
O           1.32639003069304    1.49946214102514    2.41259125746518
O          -2.29857842830461   -1.36235670477409   -0.71776226070021
H          -3.09815792915150   -1.68563209455590   -1.13456018808933
O           1.94103188410295    0.35574507937425   -2.81738192544327
H           2.60063808500556   -0.22768493047497   -3.19650470881696
O          -2.71873528188572    0.97782340600213    0.40931935754638
H          -1.79220965051078    1.30514165883353    0.37107682608348
H          -2.51159722962548   -0.46181782297414   -0.35648807323136
H          -2.90529098289129    0.88630233689218    1.34739202690349
O          -1.02901473971651   -2.14013463072399    1.57958070304614
H          -0.09535767109730   -2.02845193668331    1.34588929692195
H          -0.99116938612071   -0.69943009142572    2.24682128509378
H          -1.52868955373832   -2.03480023899889    0.74666149424224
O           0.39116298394636   -1.20357248402974   -1.41814076815197
H          -0.57662635807425   -1.24417776430435   -1.39495984732556
H           1.24698326583286   -0.24016959591165   -2.42342679559947
H           0.65753904998141   -0.96345460521651   -0.50627650615230
N           2.21421953649699    1.46955421490920   -0.45418093195441
H           2.22962586704933    1.12060132421910   -1.46299450438350
H           2.82869623934539    2.25838032925070   -0.27845192947249
H           1.19201926586591    1.70376999688362   -0.19041994374792
H           2.40322841351014    0.69207014782709    0.19326700566234
