    26
        -50.46489349  Gyration_radius:  2.55411760405 Dipole_moment: 4.637
 S          -0.28299799252038    0.59612442535429    0.49643300313615
O          -1.06775967257587   -0.15469703765116   -0.48394558374851
O           1.16224808035787    0.42957817042925    0.22015316191565
O          -0.61987350664724    2.08272098361337    0.37850132518062
O          -0.56978414777100    0.16729333874008    1.85051689139087
O          -0.69189716233579    0.50662251290994   -3.00871361633082
H          -1.55211242921279    0.45099451211131   -3.42812338933071
H          -0.81313659052060    0.17257855256462   -2.09270107425691
O          -2.07003650349799   -1.92444402625505    2.42446168839541
H          -1.56192380402515   -1.09239112867523    2.28891011808477
H          -2.98763137823911   -1.65981895789696    2.50205015204553
O           2.58423723945013    2.28180379691416   -1.07999509220399
H           2.87165574718017    2.88090407159206   -0.38889732534988
H           2.15130808320822    1.52976783658791   -0.62702303510444
O           0.09055632234926    2.81845918410043   -1.92417421190724
H           1.06396259007451    2.75813740159745   -1.82119911370535
H          -0.16152581227514    2.05435110429551   -2.48912836839917
H          -0.37166430579259    2.42364767084368   -0.56878482060906
O          -0.84634283013653   -2.68982474833650    0.18177545268917
H           0.43760737654575   -2.35139925714377    0.85935412389101
H          -1.45022323036328   -2.68526502844991    0.95467733928056
H          -1.00559073238794   -1.81574122383206   -0.24417600844830
N           1.26231340943864   -1.85018959224217    1.38945580805348
H           1.36840867024953   -0.90357963618614    0.88183219223990
H           2.12138153322958   -2.39105893864274    1.39738473647341
H           0.93882103623109   -1.63457396634516    2.33135564662022
