    26
        -50.45731620  Gyration_radius:  2.44450420789 Dipole_moment: 6.858
 S           1.99966908531075    0.01363541732101    0.06787993969305
O           1.60234080110084    0.22580235872310   -1.31300472552485
O           2.98480612076591    1.15015131486032    0.47697617029440
O           0.83477700808976    0.15005377392923    0.97940738178677
O           2.63516042569332   -1.26711262168839    0.28631145253155
O          -1.65143668686042   -2.12338068435696   -0.27918403363568
H          -2.08625945536599   -2.76134142859809   -0.84651091040714
O          -1.63077345881178    2.27404893731827   -0.59797959828619
H          -2.33013344552206    2.92798359116136   -0.62030361286712
O          -1.81165471668917    0.42686959282478    1.31333505364693
H          -1.79489001081193    1.70151119305081    0.18744997517224
H          -2.06920003816686   -0.40472706572976    0.89984361720970
H          -0.83632118852909    0.43099312528068    1.30456082653658
O          -0.95000745809510   -0.17246482276004   -1.81824173134865
H          -1.28955651563958    0.70000141753580   -1.56242111673878
H           0.02461243105243   -0.08735913352659   -1.73531539778590
H          -1.38122814441348   -1.36625016583608   -0.88813245073613
O           1.17986783172398    2.77133351007402   -0.64554813875165
H           2.48257511142517    1.96068436556912    0.25550001493468
H           1.30895838081057    2.02254191126330   -1.24852236497546
H           0.22490975382688    2.77686443877306   -0.47662349100294
N           0.49559237481916   -2.32922553603234    1.27570617421962
H           1.41628063505376   -2.40762407190276    0.79056955570061
H          -0.32467693667450   -2.49013662319272    0.63937715302205
H           0.44649626278256   -2.86554681824067    2.13472372152420
H           0.52009184312353   -1.25730594582250    1.42014654578823
