    26
        -50.45334087  Gyration_radius:  2.59362085404 Dipole_moment: 3.797
 S           0.02632606759180    1.25975349851672   -0.78559277933915
O          -0.06014730644493    0.10901931095310   -1.63722684596786
O          -0.39975581972196    2.51113566796540   -1.56347004384167
O          -1.00586740123240    1.19729442865448    0.33859616961191
O           1.33726704574926    1.47154345242034   -0.21081779116724
O          -2.69257937142750   -2.28037855774311    0.72234043276369
H          -2.91181287467418   -3.16910801075914    1.00554609140981
O           1.22860213160280   -2.32200016499545    0.62809731690342
H           1.84545184003914   -2.79491766909829    1.18869002235476
O          -0.73614008082939   -0.82509709764695    1.75947261440420
H          -0.88875706477201    0.35205825149791    0.97421815687502
H          -1.54984205472226   -1.33223149695597    1.51444628198994
H           0.01233377971684   -1.34401572577983    1.39547302135501
O           2.54191230953510   -0.76151581811264   -1.03057248600147
H           2.29622147914074    0.11175303389660   -0.66848064244652
H           1.77860503048258   -1.75529706998152    0.02391138486086
H           2.01286953612180   -0.84167974546350   -1.83067847780146
O          -0.89027343360817   -2.47029293485961   -1.21992687142226
H          -0.12952214189180   -2.67408810723245   -0.65721830726265
H          -2.16524914658243   -2.37465559904471   -0.10777618563434
H          -0.72682502669816   -1.56881488836107   -1.54056524507828
N           0.22549801072583    4.01235168973868    0.41677737297731
H           0.61154930862522    4.94722395373303    0.42701957046628
H          -0.48043883019035    3.93691356213284    1.13724449204283
H          -0.23931647988345    3.26673813347336   -0.89306720223897
H           0.95989049335328    3.33830791303495    0.61355995020269
