    26
        -50.45479402  Gyration_radius:  2.47189822088 Dipole_moment: 5.885
 S           0.13166624604939    1.91133878196784    0.86875016562043
O           0.16194299668917    1.94758595836747   -0.67759257622165
O          -0.73017281153173    2.93665267661350    1.34370541696824
O          -0.22468306824145    0.56448675572508    1.27841160686083
O           1.57996922279526    2.18441791026881    1.27553319328436
O          -2.46486709257710   -0.98016361514119   -0.98788363412361
H          -3.24398115652503   -1.13420597345995   -1.52389401142840
O           1.45522499426241   -2.13940130369318   -0.35037869156834
H           1.64342988289920   -3.03186765322198   -0.64371195764938
O          -2.79723460283365    1.05128121071705    0.71167189018097
H          -2.67256263853386   -0.21266689850982   -0.40742564354717
H          -2.81137232088507    2.01036581946826    0.65559266892986
H          -1.94645906162036    0.85117488764031    1.13845240411361
O          -0.77272222467514   -2.06622858463451    1.01065665435409
H          -0.59657856482126   -1.17618397125403    1.35743861030563
H          -1.47763240359333   -1.93728927126131    0.35901170243857
H           0.65887427288203   -2.20266778051373    0.24719871266096
O           0.04798919395044   -0.31941870299586   -1.81103334977959
H          -0.87207096191440   -0.58898264562963   -1.62131658219064
H           0.14085465985262    1.02883638672228   -1.12995278661960
H           0.61550064132868   -0.96813974030027   -1.34938326456226
N           2.88081720048057    0.38754492402871    0.01210893446765
H           3.84033804835724    0.28325147801560    0.31515972986397
H           2.87485889334147    0.67662206233003   -0.95812458387536
H           2.41924143449362   -0.51793642190156    0.07580938731665
H           2.15962923036914    1.44159373064601    0.81119600419855
