    26
        -50.45479407  Gyration_radius:  2.47183510967 Dipole_moment: 5.888
 S          -0.39753445624990    1.86356210034079    0.89265626992588
O           0.86184967492458    2.36382166841044    1.60057841775260
O          -1.40873413487019    2.86205609866184    0.89118727132349
O          -0.02912765463102    1.35405825341659   -0.41635006800834
O          -0.86475510389208    0.66763790586288    1.75590830080067
O          -2.02481791286994   -1.40627793351811   -1.38996870355549
H          -2.79706078736379   -1.93075219584206   -1.60586334050298
O           2.01514433856555   -1.57864260855938   -0.51603197420214
H           2.45001536346610   -2.35722263284514   -0.86623208324135
O          -2.61482034456279    1.18043155483215   -1.09489745045584
H          -1.67041699997866    1.40211850780400   -1.02461099850009
H          -3.03435497249457    1.72754069778391   -0.42564406817465
H          -2.33741863729718   -0.47851278913904   -1.28706642741309
O          -0.38400416302401   -1.62282753614723    0.77563411751430
H           0.50976314571065   -1.65272982404525    0.38023403470003
H          -0.64576565654689   -0.25454083263852    1.36790081149149
H          -1.00789843026241   -1.64938308052262    0.02382087219515
O           0.48603216037593   -0.48281817962449   -2.32781610752439
H          -0.37300274705801   -0.92377761882448   -2.25176576009058
H           0.38235337299965    0.34025356519802   -1.82256897251471
H           1.53907317419362   -1.15446446948717   -1.28328191729031
N           2.32357214087770    0.27469595526596    1.72408380595051
H           2.31530930345957   -0.23593922390650    0.84307665349065
H           1.51980250817748    1.54581613878562    1.64211766884616
H           1.90255249898415   -0.31301695009104    2.43281748546127
H           3.28424429936494    0.45891342882710    1.98208217201989
