    26
        -50.45352279  Gyration_radius:  2.59991760608 Dipole_moment: 4.460
 S           0.73035343196623   -0.55909479341754   -0.30785430649195
O           0.46267294746313    0.48304257144060   -1.29584047292313
O           1.59980221444232   -1.64890149122908   -0.96287283082842
O           1.53480899408134   -0.01361257412343    0.79935665723781
O          -0.49683155718272   -1.16548352038922    0.18103272337884
O          -0.30016768593154    2.79596249413736   -0.46476283114444
H           0.13504851015068    3.43087174328467   -1.03767427671778
H          -0.09838073911297    1.89666183608798   -0.84694889352259
O          -0.05609847734311   -1.12735193881895    2.76388897237486
H          -0.39668413851148   -1.24018982736734    1.84889290063488
H           0.89495022664825   -1.04273657520475    2.63525036798628
O          -0.75143981147788    1.30195845321075    3.38553148748371
H          -0.60671514026347    0.32919977865472    3.19181163158087
H          -0.55845655919855    1.42655343304517    4.31658034999449
O           0.88873049020041    2.19888028776858    1.68571113912021
H           0.19396225052779    1.92902367944612    2.40819731331832
H           1.25033310268129    1.26563199949155    1.31329553676239
H           0.36621975603773    2.57505772857906    0.88051151188538
O          -0.39536123866839   -2.99022700073139   -1.79437026467230
H           0.92955006740678   -2.29344733925041   -1.35996028028877
H          -0.84117584081255   -2.64522989891080   -1.00647523392051
H          -0.67395219249304   -2.38525096955454   -2.52694259128790
N          -0.94755149175507   -0.89523449634749   -3.37673633889432
H          -0.50582214048140   -0.76584748400338   -4.27819547002761
H          -0.45889325809725   -0.30355265877542   -2.70354586882466
H          -1.89890174028016   -0.55668340702136   -3.44788092220853
