    26
        -50.45567430  Gyration_radius:  2.46088756755 Dipole_moment: 5.091
 S          -0.64951274108866    1.65076007756431    0.80054727986836
O          -0.36872038083018    1.98811672147479   -0.67728982916309
O          -1.97508474610653    2.05808464784128    1.15337504324688
O          -0.37349715825734    0.25126847910851    1.01396524830314
O           0.37878909921371    2.49019357652519    1.56405075336261
O          -1.82914708551547   -1.64799035888115   -1.21363655980979
H          -2.46226154732501   -1.84281521336436   -1.90656389031114
O           2.22056996836255   -1.26762864005091   -0.43511622809144
H           2.78928343613001   -1.94569539635656   -0.80287133679762
O          -3.21597650335272   -0.24216260298253    0.56958871920492
H          -3.15099090215544   -0.68735644525052    1.41747564704727
H          -2.87459927815208    0.65991991931835    0.72853721645188
H          -2.31689976665912   -1.10260212151685   -0.54732916947275
O           0.11143009798394   -2.34787944821556    0.70514041682475
H          -0.53900839323255   -2.46718760249881   -0.00059336464807
H           1.50360593705075   -1.74369503400574    0.06545554206462
H          -0.10399636042915   -1.47195835299271    1.06927611036105
O           0.26759426406197   -0.09850950575625   -1.93422019297474
H          -0.49047010539455   -0.68579317922182   -1.72480542737070
H          -0.10244473039519    1.15174266044300   -1.22363204825907
H           1.03150278142650   -0.47279234657620   -1.45072079244155
N           2.50974127605348    1.51747054751016    0.53596961120910
H           1.29793746169618    2.12762218611570    1.22224482156900
H           2.61502843685573    1.97222308062708   -0.36218440414829
H           3.36636947060931    1.63291212763087    1.06180162304640
H           2.36075746944353    0.52375221350651    0.37153523093092
