    26
        -50.45567462  Gyration_radius:  2.46073566679 Dipole_moment: 5.089
 S          -0.79565086303073   -1.53195138670946    0.89898323731663
O           0.01911737188890   -0.79147689515724    1.97812992869588
O          -0.43682328361993   -2.91699369535504    0.87750170203162
O          -2.24469228715853   -1.37162643208512    1.36775321696776
O          -0.62403476438936   -0.84689553743701   -0.35861530006362
O           2.52341064531495   -0.28546889488749   -1.04011388782838
H           3.46834414864830   -0.41428910661020   -0.94292076309346
O          -0.51517869054104    2.48438434072328   -0.54050075292628
H          -0.33713295373358    3.37399235421314   -0.84924280515453
O           1.51151390571442   -2.74488012718834   -0.95225064845243
H           2.12058075866065   -1.18775713688420   -0.98581959792050
H           0.88284763887578   -2.89858783301742   -0.21968863551599
H           1.00218236558667   -2.88736081344499   -1.75325286243979
O           1.31080592015282    1.10355666947924    0.93898610350883
H           0.64439326968071    1.65610852770152    0.48302535055263
H           0.56189457216612   -0.00446551820270    1.58458965041608
H           1.79677655387683    0.63485498700880    0.22656994177805
O           0.23134911397275    0.71489255704172   -2.33721223952638
H           1.16930082453423    0.54794173577940   -2.17051841514140
H          -0.21961951537281    0.03264060812358   -1.81051149227307
H          -0.30699856641286    1.87656049240901   -1.30105642501263
N          -2.36319942098575    1.18378169847093    1.37630931846218
H          -2.39174780951584   -0.33660084816450    1.36790026406591
H          -1.90919262630017    1.47613898597162    2.23240861280044
H          -1.81434591207165    1.53225766899113    0.59275664659175
H          -3.28390040592997    1.60124359924468    1.33678983216143
