    26
        -50.45567409  Gyration_radius:  2.46101275274 Dipole_moment: 5.097
 S          -1.60791345746890    0.21713514243572    1.07533370682700
O          -0.65971973892279    0.86798465586647    0.20488921150035
O          -1.15052416677318   -1.23759196978712    1.30161414137767
O          -1.80870378530130    0.86929037483873    2.33308637415046
O          -2.94406041722183    0.06566102684132    0.34280835759477
O           0.72438719410769   -0.72085319131095   -2.38295242807004
H           1.33270784123204   -0.96388699201377   -3.08234602394035
O           2.42487629386702    0.45067732749773    1.20652934068436
H           3.10841129436503    0.22853319312109    1.84097898071071
O           0.66126893233602    1.86782490535090    2.60676435538796
H          -0.23452013830995    1.47832637235643    2.64363406364450
H           1.74249079580921    0.95932101429336    1.71148047932651
H           0.54773308823103    2.71584690512636    2.17166396032514
O           1.48869591919490    1.51457448133010   -1.22784182796267
H           2.12138695036710    1.25570201281070   -0.54371057767268
H           1.01139295835653    0.17654473133695   -2.06085613862121
H           0.63691689153984    1.52881131440163   -0.75821813605932
O           1.05878846555359   -1.63731149433626    0.16201624260840
H          -0.24486674116787   -1.43680620122884    0.84459245930676
H           0.91658140789090   -1.39754789487469   -0.77589692720830
H           1.60222599899374   -0.91268286427926    0.54008217722224
N          -2.11822126182450   -1.21863754961968   -1.70975548430413
H          -2.03110331660488   -2.18335507918214   -1.41596306339604
H          -1.18997056304986   -0.87626946017047   -1.95017660442711
H          -2.70042358660597   -1.18126553463727   -2.53636566337996
H          -2.68783685859163   -0.43002522616699   -0.54139098562086
