    26
        -50.45567457  Gyration_radius:  2.46072500335 Dipole_moment: 5.085
 S          -0.70192153221564    1.55652131708927    0.93381351911386
O          -0.67260040333462    0.82798220861499   -0.31067971489955
O           0.10899469842632    0.77097628674099    1.98352718856080
O           0.08374125429959    2.86121786881524    0.77380750326567
O          -2.01451589037636    1.83175775806469    1.43276484176777
O          -1.46551629395863   -2.31889382939788    0.07873188436284
H          -1.83848814386141   -3.06842774052475    0.54574084956719
O           2.08168278806859   -0.73907665867657   -1.35946406979452
H           2.66540141783368   -1.34701356781197   -1.81565850733082
O          -3.22089653185824   -0.35862678771063    0.47339762574579
H          -2.09062688564584   -1.56704886275283    0.23149944887438
H          -2.85875497567341    0.42239935505041    0.93641362680442
H          -3.50308960539828   -0.03266745318925   -0.38416294879029
O           0.90655162452319   -1.40813070548338    1.00681305244559
H           1.41108536977808   -1.16592811630667    0.20418291295758
H           0.45316108407986   -0.13124236593725    1.61400963508952
H           0.06372403508915   -1.79244622211641    0.68237803425444
O          -0.39564792567286   -1.03702429204774   -2.18978114977940
H           1.18851291768885   -0.83177732868072   -1.78952721600160
H          -0.77120250233630   -1.74760462487341   -1.65170990119754
H          -0.62723902635379   -0.23057718584988   -1.69760190613909
N           2.32041777103835    1.86969462749634    0.02610583544457
H           2.13135081940167    1.06269254120387   -0.56523882149516
H           2.95657660881437    2.48630339550582   -0.46241813293396
H           1.01967217083369    2.54583696362527    0.43150621517555
H           2.76962715680504    1.54110342916140    0.87155022491812
