    26
        -50.45479406  Gyration_radius:  2.47189140348 Dipole_moment: 5.877
 S          -0.35060139479369    1.72166343107468    1.15781645111505
O           0.94220559931843    2.53088644300988    1.26624843106043
O          -0.52352168396186    1.29611157158568   -0.21967067800372
O          -0.07970450012327    0.46284425482616    2.01537959546494
O          -1.44506736807435    2.43857227032364    1.71254322600157
O          -2.05900990037781   -1.88705211246430   -0.45771043614725
H          -2.70133340796178   -2.59013718541411   -0.35226393673016
O           1.84695887750734   -1.03931581127223   -1.52651387390936
H           2.23492033334096   -1.69152344359398   -2.11138825441646
O          -3.01560462212132    0.47827920912605    0.32798828511639
H          -3.19074977794030    0.91645331057300    1.16496923635897
H          -2.22354323828240    0.92744500319989   -0.01373259758863
H          -2.49026657585183   -1.06390039370006   -0.13296399963291
O           0.39816875142137   -1.65323134623585    0.69893352012497
H           0.13744779811191   -0.38258794394816    1.47989347684749
H          -0.47824000781602   -1.84601499349888    0.31179478967921
H           0.98802815079176   -1.46771208874476   -0.05843308549461
O          -0.55071256176801   -0.38710117190435   -2.33176138937026
H          -0.59241228173152    0.39294810748384   -1.75452297777280
H           0.98771942754536   -0.75942225736559   -1.94903770310737
H          -1.15150107717239   -1.02570870174607   -1.92015003739055
N           2.72606776178391    0.86997693152037    0.50599336033309
H           2.42782034623660    0.35933964642293   -0.32302819341415
H           3.62810623653493    1.28875496255817    0.32063974953501
H           1.71076409530708    1.90276378811096    0.92352373156295
H           2.82406104008186    0.20766852007355    1.26545332976879
