    26
        -50.45731598  Gyration_radius:  2.44437138063 Dipole_moment: 6.861
 S           0.25872449982842    1.56228333448815    1.22279405593866
O           0.56627010535834    1.15207995439281   -0.17126138024061
O          -0.27827211270894    3.02192666988281    1.11936512160970
O          -0.78697190880663    0.72763578837884    1.78807597080026
O           1.47488712985082    1.55842713648899    2.00580542657268
O          -2.34242598478952   -0.47493726565968   -1.57180330806094
H          -2.95238744571429   -0.72655219608914   -2.26589598652447
O           1.31913652698608   -2.36002967124962   -0.00368824913674
H           1.43137791782659   -3.24346139688012    0.34966325223790
O          -2.44215270738599    1.87787067064430    0.04400507246978
H          -2.45405795224548    1.22935029773472   -0.67688144561428
H          -2.19983919800062    1.35767602101006    0.82611723365754
H          -1.10938145902325    2.91046764834466    0.61435155724121
O          -1.06847539971074   -1.63262021136914    0.65726874253939
H           0.38526529350919   -2.08467232475393    0.25949417834213
H          -0.97416933676742   -0.81257902015056    1.18890117292334
H          -1.64149067364256   -1.37411753038306   -0.08228454095469
O           0.24732526750406   -0.58761733285785   -2.18723106329055
H           0.62546938007831   -1.35357719671226   -1.74088243774654
H          -1.43609533390960   -0.50401624273163   -1.95822691895846
H           0.34990400711088    0.15450761935610   -1.56269214538826
N           2.66481174327645   -0.10763576647563    0.42798568589522
H           1.90823436255449    0.46791501963472   -0.08824272497047
H           3.60063010457853    0.00093532724902    0.05326574753531
H           2.53878970276294    0.33807587953797    1.36344564457647
H           2.31489348147721   -1.09733521182787    0.38855130854451
