    26
        -50.45489345  Gyration_radius:  2.43242749275 Dipole_moment: 9.419
 S           1.73555139044999    0.89532976999980   -0.97850845301902
O           0.51072309708709    1.63657200215401   -1.25038544347136
O           1.93528080537030    0.88761882786520    0.49882480246491
O           1.42170921286064   -0.62211998323980   -1.33832442049396
O           2.88907369870012    1.25942435528942   -1.71939894244536
O          -0.28087591767319   -1.41917727229743    2.33005912816082
H          -0.36026966220124   -1.91914055697071    3.14292276073148
O          -2.42986261953788    0.80595090626041   -0.55865922304123
H          -3.15815171547377    1.42580068497615   -0.61258466336256
O          -1.21047389775303    0.62736291293260   -2.87083313840163
H          -0.86228468936807   -0.23928316174863   -3.09172430617751
H          -2.03595292352038    0.77674574713035   -1.47532113318825
H          -0.46897977782387    1.10762632896258   -2.42356676751872
O          -0.88813356410912   -1.52223794483334   -0.36870581060044
H          -0.79354411222200   -1.68766062875117    0.58154853963365
H          -1.63006304671842   -0.91196075270940   -0.46544603711450
H           0.54321798498589   -0.90525869256383   -0.99290319102715
O           2.13276538098909   -1.56960495855518    1.35747600074151
H           0.66937769364096   -1.52141596620543    2.03031879119960
H           2.19646480627485   -2.06277291725255    0.53504245614592
H           2.23087672479515   -0.62460554764067    1.09015877969716
N          -0.45285877950899    1.12782750833583    1.32875269610689
H          -0.56502342968453    0.25648278495718    1.87776621176039
H           0.58024785233819    1.11620138908246    0.94673292985835
H          -1.11559820927613    1.13215217916196    0.52094884603275
H          -0.59321629262876    1.95014298565782    1.90580957733254
