    26
        -50.45734379  Gyration_radius:  2.52295297153 Dipole_moment: 7.778
 S           0.28933591146700    1.64647330724351   -0.98864293612819
O           0.05804110278815    1.08911057152743   -2.44481240590075
O          -0.87667120089969    1.22914240611809   -0.19872334579392
O           1.46575405954281    0.89004193986051   -0.48526064937452
O           0.50122803203003    3.04928213611639   -1.04888870542560
O          -0.78010568876754    0.01075120400719    3.21719302819586
H          -0.33883817452538    0.20084649754305    4.04700000885424
O           0.09482808113528   -2.54409937860720   -0.82360662766156
H           0.14128328930240   -3.47191007390502   -1.05684490693071
O          -1.75349208891463   -0.66919996360739   -1.76084063405043
H          -1.28152974505359   -1.45354258129931   -1.44035977080962
H          -1.75150710467211   -0.03658950781881   -1.01749029403916
H          -0.66246499363597    0.41670396815032   -2.35835284247053
O          -1.14359543551582    2.37205670285196    2.12758584734186
H          -1.00102069484757    2.04601680311382    1.20757590947993
H          -1.91592119334783    2.93792098188586    2.08505284973608
H          -1.03715768334687    0.89315181635293    2.84732615222124
O           1.84077233292278   -1.10782908774248   -2.13909539652950
H           0.78165061814456   -2.07476017478433   -1.37613447225095
H           1.53191425440247   -0.77084915481594   -2.98430816374260
H           1.84600073586602   -0.31745735511683   -1.54741619752818
N           0.79524871357195   -0.87973332093919    1.24575635363175
H           0.12399799892524   -0.55052145782599    1.99177472781140
H           0.37315143432846   -1.61469633112695    0.65258288475931
H           1.05033437731202   -0.06046624251967    0.57874954776503
H           1.64876309183743   -1.22984371467389    1.67018003877343
