    26
        -50.45567411  Gyration_radius:  2.46083282135 Dipole_moment: 5.089
 S          -0.59870477561675    1.57359668720062    0.97417733443553
O          -0.00237440904500    2.10376459487297   -0.34484349396957
O          -0.52923355085220    0.13296093766135    0.96528635185616
O           0.35221606893917    2.11835541397646    2.04383885701779
O          -1.91278610850619    2.10582466683511    1.16811133159213
O          -1.74292111080549   -1.15256358765531   -1.78060103972505
H          -2.25470816225070   -1.14386436758154   -2.59117516332486
O           2.10769284994211   -1.48027830076353   -0.29430796370589
H           2.65887180163648   -2.16408587273659   -0.67755364613203
O          -3.27375005694846    0.13028493773794   -0.02284810786509
H          -3.41639124415783   -0.45066135350991    0.72783021059185
H          -2.86882631535847    0.93693784713901    0.35251905170265
H          -2.28285923711531   -0.65801058131032   -1.11478497988911
O          -0.28245141851613   -2.42317823436946    0.26497084251687
H          -0.46464349185457   -1.59746407965935    0.74580115583058
H          -0.79939699843272   -2.33184070619296   -0.54738654201195
H           1.26152115727383   -1.92516335863280   -0.01585890906629
O           0.60926933954013    0.18146001366190   -1.85104797570128
H          -0.23510137719475   -0.31813531845880   -1.87949834002437
H           0.26030885890719    1.33847123206824   -0.98878249699252
H           1.22443233946743   -0.37146929581112   -1.32842706691091
N           2.51735067134057    1.03570115042747    1.21621985321033
H           2.29396026584228    0.11458739113018    0.84419327516182
H           2.83667171803048    1.61500392883469    0.45001591730550
H           1.27319861212108    1.69007879700894    1.79707788080218
H           3.26865458361396    0.93968746812774    1.88707369329297
