    26
        -50.45489359  Gyration_radius:  2.43241889616 Dipole_moment: 9.424
 S          -0.54810921926633   -0.98134742425402   -1.87290610733257
O          -0.53373999020522   -1.97801594473217   -0.76439419334317
O          -1.52601866037753    0.16260404503520   -1.35767971852916
O           0.77782763861899   -0.38027782721780   -1.93761340499124
O          -1.09607181443273   -1.46951488584720   -3.08677120600387
O           2.12417248092286    1.52504704888350    0.15425627026544
H           3.05770257937224    1.73793191737308    0.12520559505324
O          -0.65133245232869   -0.51168461091613    2.61495873752150
H          -0.89406585467216   -0.70082983799674    3.52176934898838
O           0.96637921003327    2.17810473104945   -2.10385725161939
H           0.06390198734010    2.49672994807658   -2.03159642782684
H           1.75499259277067    1.82191170014224   -0.72427979243478
H           0.89415859468266    1.20200343687751   -2.25388939340805
O          -0.61166025826419    1.52380990170020    0.73888365625791
H           0.32013725726777    1.77043743025664    0.68095606437603
H          -1.13609118200964    0.66561602298634   -0.60509843254426
H          -0.70101999286963    0.98177257872032    1.53728202932951
O          -2.42870030976532   -1.43456548608991    0.94643301034392
H          -1.80627992887979   -1.79355318335506    0.26977291756031
H          -1.37500575756044   -0.90348632189460    2.04400264584206
H          -2.92604725914738   -0.75501726281242    0.48324332333085
N           1.28010014662670   -1.02909545396655    0.73875959963123
H           1.63052640193642   -0.12409742556752    0.35187734100060
H           2.05036594813620   -1.67192962508375    0.88834378143595
H           0.75091290273952   -0.86218988719809    1.61367835505606
H           0.56296492933458   -1.47036356417353    0.02866325203993
