    26
        -50.45489356  Gyration_radius:  2.43248825006 Dipole_moment: 9.422
 S          -0.29521124891157    1.69493799799226    1.34592819199660
O          -0.07041820819951    2.03849245104638   -0.19100579089550
O          -0.46109210071976    2.93206725871753    2.01973256083443
O          -1.41158314064383    0.75943157671629    1.39135179393534
O           0.93259001393388    0.94554200587247    1.73722354163275
O          -1.94376653205011   -1.68462638842551   -0.49624609884577
H          -2.60241470656576   -2.35072657678404   -0.29601692622251
O           2.25401745906429   -1.29789500445288   -0.87124320696855
H           3.05214299937312   -1.73607407900074   -1.16784937841057
O          -3.04599369905071    0.69044121999756   -0.59185594690700
H          -2.67445237431285    1.29484733602430   -1.23824419374287
H          -2.44189031707818   -0.82059202608042   -0.53725659303329
H          -2.55316438945890    0.86288656795734    0.24954260083145
O          -0.05516391473234   -0.08347031490327   -1.79842182526529
H          -0.10742151379326    1.23156025227665   -0.75561504608742
H           0.78715144270817   -0.55292221675321   -1.70228726481712
H          -0.74884461964210   -0.72974054481100   -1.61508031347475
O           2.73855605568551    1.15543299391552   -0.13563285908753
H           2.17569213579024    1.16779576760034    0.67502049793419
H           2.52645482236391   -0.37245582189398   -0.60190263695603
H           2.35343193787930    1.82350033251738   -0.70927292963278
N           0.31171344088743   -1.42199657988348    1.05986567457124
H          -0.62645531205065   -1.43002668166929    0.60026805988365
H           1.05115265548355   -1.63395914656755    0.36573152939055
H           0.52295693231649   -0.40583490056679    1.42881841528579
H           0.33201220172250   -2.07661546884258    1.83444813405142
