    26
        -50.45731613  Gyration_radius:  2.44428032268 Dipole_moment: 6.852
 S          -0.50255341759152    1.28120612001192    1.45129474114232
O          -0.01368112758887    1.29347128830632    0.04894211177927
O          -1.06830039250710   -0.01285398305168    1.79012584056952
O           0.56672107592965    1.68385241705514    2.33837614873074
O          -1.64001370779193    2.34565816647924    1.50611260678876
O          -1.84056318221344   -1.18873720619070   -1.84151847276789
H          -2.26135092669830   -1.55089875523755   -2.62194398015915
O           2.24507916929751   -1.49222486390074   -0.21072465125010
H           2.73747729174735   -2.28002236230961    0.02343999748435
O          -3.02645566090195    0.56233097053866    0.07560489969478
H          -2.59278009101632    0.07931530692470    0.79631546927227
H          -2.31896432961922    1.96587939216256    0.91209564120890
H          -2.72759302853041    0.10760133672941   -0.72716779763780
O          -0.22690316252033   -2.02276663067494    0.31344825739555
H          -0.52588959029657   -1.34921790434846    0.96227313724369
H          -0.83911580443404   -1.92510015030260   -0.43318798106548
H           1.28228683651348   -1.70842505610188   -0.00239130623390
O           0.53332325061732   -0.03777848847363   -2.21390474112976
H          -1.01035327792368   -0.74813627173143   -2.13850575715246
H           0.27532385941833    0.55486944074737   -1.48347408929040
H           1.20746162931204   -0.62045928626478   -1.84658379846696
N           2.41499825196097    1.01433072905376    0.66092870449043
H           2.55224922113319   -0.00534560380259    0.44913690679726
H           1.49204396309845    1.27314128651542    0.16040132994792
H           2.07906763906789    1.19245761474143    1.63335152650614
H           3.20848549154159    1.58785250312946    0.39755525610069
