    26
        -50.45731605  Gyration_radius:  2.44439459344 Dipole_moment: 6.862
 S          -0.29631273882939    1.84617348710053    0.71221571485010
O          -1.03740269172237    1.72866783173407   -0.53139608462447
O           0.83015890886790    2.74870651057840    0.61982130984527
O          -1.26920854734175    2.35411723384096    1.81903360358292
O           0.17260082293243    0.51508153832629    1.17542265585930
O          -2.01317401155806   -2.02414427511661   -0.18235607539227
H          -2.48742791158367   -2.85609722837868   -0.18589491771040
O           2.00517779570429   -0.88178254613938   -1.58475269229852
H           2.38268624926418   -0.98181699219710   -2.45961814825223
O          -2.91524609537042    0.46877140801174    0.87932361599713
H          -2.69442901545639   -0.46168753608380    0.71840518833908
H          -2.00356904441949    1.70843770845518    1.77332405038089
H          -2.54515307396827    0.93556897008319    0.11374194922884
O           0.49515897650893   -2.10679703458848    0.71214956375162
H           0.33371888545625   -1.19639461837891    1.02271355279725
H          -1.13289364598796   -2.19441644934921    0.22715563224979
H           1.08389830740042   -2.01938654967294   -0.04591175738427
O          -0.51009810908281   -0.42592620277405   -1.94865977182912
H          -0.70120031372333    0.44064800294538   -1.52853239364816
H           1.02415955717752   -0.70390251947429   -1.73689456171787
H          -1.11102100466222   -1.04531756706956   -1.50439988086516
N           2.54309068961977    0.82743189750427    0.37997976393471
H           2.25050545966667    1.81786343919754    0.22885704464915
H           3.40636606222345    0.73834723141721    0.90415368755749
H           1.65916011593706    0.51629695371712    0.92057026363642
H           2.53045436294725    0.25155729631081   -0.49845131293615
