    26
        -50.45426022  Gyration_radius:  2.48271741967 Dipole_moment: 9.494
 S          -1.07331903979718    1.75770299972797   -0.52092685002944
O           0.38255851359559    1.68148499805323   -0.48953328495536
O          -1.63495968502718    3.02157514894094   -0.84517294537714
O          -1.55458553397873    0.64970674477738   -1.40513383107208
O          -1.56970310550611    1.34754431121234    0.92081904187564
O          -0.93500968763799   -2.56450333404422    0.34216959330750
H          -1.22296706845670   -3.46835413478208    0.47306076837194
O           2.54350364613004   -0.29171222169413    0.30030901944825
H           3.28884543661303   -0.68817942168395    0.75334457541882
O          -2.97785814714377   -0.97202564223570    0.08254643018611
H          -1.76921297067420   -2.01365458745733    0.26017687296728
H          -3.11448497378180   -0.42562433713129    0.86241288570338
H          -2.59327270748429   -0.35076666570980   -0.58048272323501
O           0.17519196574776   -0.42661355552038    1.77311956526253
H           1.02776083178279   -0.27633040017107    1.32984756322339
H          -0.87990541609940    0.74768790924756    1.29891452437092
H          -0.15444584647073   -1.28005741763240    1.45548029325101
O           2.67903980482881    2.34335794906373    0.49929083121143
H           1.73414316095327    2.28538634169613    0.22588939933043
H           2.66738960588193    0.68923858064079    0.36428119158899
H           3.09891971500470    2.90691248387268   -0.15266253394945
N           0.40110049205999   -0.95365543455112   -1.40322155533807
H          -0.42531391178671   -0.20931778331937   -1.46841575989658
H           1.18576262687678   -0.51457353100182   -0.89661789101738
H           0.03071760491328   -1.74845822398931   -0.84953249609278
H           0.69010467945581   -1.24677077630877   -2.32996268455498
