    26
        -50.45426024  Gyration_radius:  2.48261539274 Dipole_moment: 9.493
 S          -0.52773395521329    2.01393341274154    0.42329697869096
O           0.69944693072278    1.62956686254621   -0.26420032948704
O          -0.70799349251758    3.40118461209890    0.67029122982185
O          -1.66596650094175    1.39111062501636   -0.32346980752994
O          -0.51375591563668    1.25901135180501    1.81010183940909
O          -1.52830639553647   -2.27623787513499    0.22447092978375
H          -2.02745430345003   -3.09061738221763    0.29253692155012
O           2.18846319155553   -0.89942912462183   -1.02316357165029
H           2.87018192708943   -1.57067073428196   -1.07472541360080
O          -2.83351167339804   -0.29932696201812    1.30375943591393
H          -2.45336544148349   -0.02898263902801    2.14507110195767
H          -2.56032379183465    0.41286942752749    0.67792607899466
H          -2.08531534141738   -1.56838321302492    0.66577936792067
O           0.71261077274447   -1.02088184230610    1.34392704909193
H           0.01600707853520   -1.63049702313410    1.05926496248312
H           1.31308821191187   -0.91304863770768    0.58649981746854
H           0.02201568920268    0.43742717969393    1.68121167664346
O           3.27498456769413    1.42705416285760   -0.38479953765850
H           2.34076910067196    1.66255963366079   -0.17796738040318
H           2.65180842090800   -0.04526085159097   -0.82953741601885
H           3.56485611214286    2.07566933940575   -1.02834412143440
N          -0.54106203836864   -0.49155311758399   -1.58289088203037
H          -0.76383072222836   -0.51191021156268   -2.57195993109187
H          -1.01931251290563    0.38698812521350   -1.09233720908645
H          -0.90473921323089   -1.32965044878976   -1.09220846552130
H           0.47843929498243   -0.42092466956347   -1.43853333421661
