    26
        -50.45426017  Gyration_radius:  2.48285147031 Dipole_moment: 9.493
 S          -1.56643054073617    1.42956660927024    0.13060786696638
O          -2.04170500405280    0.17737871859825    0.96689227024629
O          -1.51730345196951    0.93264645371429   -1.28067787929037
O          -2.50267703897027    2.48007619671286    0.32548999188053
O          -0.19296240459479    1.69781627344656    0.54029965637089
O           0.01387589501353   -2.44771913624163   -1.25628771328120
H           0.05614033125057   -3.30629882066689   -1.67828003831143
O           2.42903165802661    0.20660985513227    0.83772911670376
H           3.20885990910008   -0.18699428680631    1.23138430414022
O          -2.42122020630857   -1.52724316138272   -1.27357047573035
H          -2.21328010289394   -0.57089684082386   -1.39881474472235
H          -0.94747666365077   -2.16438933782446   -1.29274947194132
H          -2.83115884935569   -1.56519561549890   -0.40417671729270
O           1.59069554805981    2.21645360324185    2.34082757363890
H           0.76558953709694    2.09830527622398    1.81547466777040
H           2.18662843940977    0.97814565243476    1.41012586053070
H           1.85092393409053    3.12904580486455    2.20500948091108
O           0.11616578438557   -1.29074486840816    1.29362606576593
H           0.90148663418140   -0.71862745371768    1.25129727659370
H          -1.22982104819952   -0.34631605258109    1.17976053983462
H           0.15218226991119   -1.86760125513594    0.51655180160002
N           0.86957740844634    0.12760915823965   -1.50560660878816
H           1.38358757853662    0.37819926488106   -0.64646850598281
H           1.34570446457635    0.48465051538954   -2.32667406696654
H           0.74924851198809   -0.90139745549215   -1.55146033946688
H          -0.15566260333765    0.55692089243013   -1.43030991117784
