    26
        -50.45426016  Gyration_radius:  2.48281519589 Dipole_moment: 9.494
 S          -0.06267963733313    2.12340523897685   -0.01764061698608
O           1.31723253785466    1.71001278506826    0.38996717689050
O          -0.27068102248604    3.52745505968850    0.04130378067629
O          -0.17571156639975    1.66634055381256   -1.52483322708958
O          -0.99916855336009    1.29490656044701    0.73258686684736
O          -1.65975549151623   -1.64069376740165    1.09417377018021
H          -2.13786231434765   -2.47091397249674    1.08390516835365
O           1.94760277624926   -1.68529012427730   -0.96752921095273
H           2.60173475660170   -2.30351677219625   -1.29449859943483
O          -3.37355572702131    0.37362793513441    1.18462363527716
H          -2.58423294667208    0.89102804857365    0.90162795057735
H          -2.34174273905144   -0.92666319887687    1.17592798613308
H          -3.67031346350388    0.78562804997904    1.99773629379852
O           2.50053804873045    0.73920057019377   -1.73756824973533
H           2.19758724219682    1.21949474991618   -0.93069880023118
H           2.21977675587720   -0.78238524123513   -1.30912343764735
H           1.90615963044084    1.04618061215880   -2.42886410520524
O          -0.70543120081640   -0.90815937987095   -1.42565865676288
H          -0.46330673709167    0.71989319585192   -1.51339274538055
H           0.15839102301785   -1.34490277765225   -1.39493892835383
H          -1.14900456486704   -1.11152651205402   -0.58432090975125
N           0.95011053890002   -0.60929046378764    1.32886009197227
H           1.39599262149340   -1.20869199719879    0.60955701063604
H           1.09684627635002    0.44213452182683    0.99082952752618
H          -0.06448181412027   -0.79648546987207    1.35513892008000
H           1.36595560087686   -0.75078821471291    2.24282931858155
