    26
        -50.45426018  Gyration_radius:  2.48281527537 Dipole_moment: 9.495
 S          -0.48026675148396    2.06848802936914   -0.06132360878370
O          -0.09592677724355    1.66097159178151   -1.53761654635435
O          -0.97351892639843    3.40057807691470   -0.07850190845480
O          -1.39620428428972    1.04166896411849    0.42139171800419
O           0.79611391401363    1.91788790388057    0.70636713254331
O          -1.52635304549908   -1.97888410491016    0.63076567745689
H          -1.80832720810451   -2.88574758787337    0.50402048628507
O           2.43136143035977   -1.22779742978080   -0.38855196762861
H           3.25891812199872   -1.69122215996663   -0.52041191927239
O          -3.57066022659141   -0.34640834352107    0.23259085077172
H          -2.85503268598697    0.32744932973912    0.16472593339466
H          -2.33433759391431   -1.41679020394306    0.51749581842842
H          -4.14855898370811   -0.03514470299064    0.93122731950251
O          -0.10545496618294   -0.96927560816711   -1.55066629921299
H           0.78877305586888   -1.22836072635465   -1.28398264148555
H          -0.70596240527392   -1.29072409986037   -0.85637181464201
H          -0.18040668493536    0.67682204055532   -1.59143640785784
O           2.67058087844997    1.28795751903425   -1.01365770678381
H           2.07477122109053    1.66536459410589   -0.32369050919023
H           2.59748496149945   -0.27563223833471   -0.65639274570115
H           2.23153670743715    1.50053569792663   -1.84278900053152
N           0.66619286502150   -0.46524919778307    1.54256311394503
H          -0.26015993182240   -0.84916810593236    1.29844005825129
H           0.68333548681809    0.60758852947418    1.24260630156295
H           0.84453507475496   -0.55999034385159    2.53629394814770
H           1.39756675412180   -0.93491742363044    0.97690470760511
