    26
        -50.45289445  Gyration_radius:  2.64839378463 Dipole_moment: 2.979
 S           0.78860663387130    0.08675265913743    0.18585635672701
O           1.49216990301361   -0.51053217388421   -0.90915030298665
O          -0.04849456644764   -0.98874301401739    0.90517642025585
O           1.60037340699717    0.76374688858857    1.16781919820097
O          -0.24496488286580    1.06149091043939   -0.36849374393826
O          -0.21325783396142    0.65316258197910    3.17342927474583
H          -0.59948235737195   -0.21080569580286    3.00837140730516
H           0.61849206291406    0.66468708932966    2.66960090445049
O          -1.40945146155358   -3.11623869533056   -2.04042562819890
H          -1.22103399184674   -2.20824392354681   -2.40371557593466
H          -2.27434441422407   -3.07550583808335   -1.62971561665736
O           1.44283321457081    3.46725222612126    1.36078119403701
H           1.68415604710789    2.52346238761461    1.36202646786065
H           1.93961533527896    3.87758882171441    0.65177644685294
O           0.59294384477530   -3.04739728057965   -0.34053487338617
H          -0.15349625458557   -3.22070171208868   -0.97696296624830
H           1.27396963028711   -2.58901734456520   -0.84922018810498
H           0.16971006087048   -1.90558202256193    0.45685654723069
O          -1.05600868891296    2.50887794188586    1.47520066357675
H          -0.65308665130278    1.68862433203089    0.40046807565845
H          -0.93071437665141    1.91573110369919    2.25456144667559
H          -0.29889506710668    3.13029192580437    1.51056222014500
N          -0.74117962070964   -0.62332565952896   -2.74000971134858
H          -0.56040413844221   -0.41022717474248   -3.71354616874085
H           0.14167743570948   -0.54214113317402   -2.23868660150177
H          -1.33973325941546    0.10679281955661   -2.37202524668287
