    26
        -50.45444096  Gyration_radius:  2.55293429173 Dipole_moment: 4.677
 S          -1.28312187376793    0.55133403764700   -0.25758354911080
O          -0.97462579726441   -0.12268429784531    1.07556034969998
O          -1.04333474716785   -0.34803806208696   -1.34973608975862
O          -2.78614185720524    0.83948096447750   -0.15217228079940
O          -0.55251269938593    1.79630931564083   -0.34042578460456
O           0.83225397801632   -3.13576492990490    1.27734691009529
H          -0.06848849620765   -3.26342977107603    1.57920167367634
O           2.55823829322767   -0.37289873317337   -1.01957212616681
H           3.47864794050509   -0.12173177740484   -1.10978973560382
O           1.01233962770791    1.22431292938400   -2.42525032066802
H           0.38281361385414    0.60336615932624   -2.80653879286514
H           0.51938160610741    1.64230809822234   -1.69374472755659
H           2.03546503514776    0.26231412040725   -1.57716567206378
O           0.69075973573692   -2.46465278538968   -1.29156339532979
H          -0.04155777235305   -1.83255083897682   -1.38284284627834
H           1.49485623033066   -1.93154617564795   -1.36360385025830
H           0.78359670190938   -3.06479821017743    0.29312040051366
O           1.42723684465636   -0.58354181300449    1.42277285381971
H           0.08554320189386   -0.27370002906180    1.24518277572491
H           1.34682349911005   -1.57021099780995    1.52291370575172
H           1.88642206537109   -0.45003759480223    0.56397216813283
N          -2.38336418511747    2.60949300372951    1.65776663561812
H          -2.83528385234211    1.54689558343544    0.58510750098819
H          -1.49695797618699    2.78551126925261    1.19269413581080
H          -2.87198650602608    3.48434713177393    1.79540072228192
H          -2.19700262051502    2.18991343306387    2.55894934900558
