    26
        -50.45444096  Gyration_radius:  2.55279783159 Dipole_moment: 4.679
 S          -1.25706918971684   -0.39782626359161    0.52792543141965
O          -0.46636241821454   -0.79938365843383    1.66995362355076
O          -1.36524691220450    1.02251426754240    0.35442556338169
O          -0.69263094839541   -1.05445051305905   -0.72778078579180
O          -2.66018688304036   -1.00951815517286    0.62935335153868
O           2.19492547365230    1.66341216354309    0.37043669000911
H           3.08385306463725    1.83437794103532    0.68514463301391
O           0.85270204104117    0.80594270196936   -3.28377576215706
H           0.04444621360532    0.40173124226494   -3.60329981097014
O           0.14933303250631    2.51296114225375   -1.37036550254508
H           0.95361325641920    2.49357770949249   -0.83305644969901
H           0.57311311041357    1.55884175840404   -2.70836857428669
H          -0.52806973037294    2.07454275698487   -0.82895201643753
O           1.67503204781669   -0.49879612258323   -1.15992285072413
H           0.36085222835010   -0.84985898451662   -0.88273887032588
H           1.53991566251951   -0.08454711088144   -2.05440090162056
H           1.92212083270719    0.24584208012916   -0.56766638762322
O           0.49317591485879    1.58918263567030    2.37423081041532
H           0.22862420943972    0.65145677294469    2.31471059775069
H           1.60747163102342    1.65570056763674    1.17201698195131
H          -0.25946132078426    2.06784633106407    2.01134588026210
N          -1.68422957050231   -3.30971854010327    1.20128223671659
H          -0.92480917723927   -2.80149309606627    1.64628617519126
H          -2.46986307385595   -1.99269730314654    0.83865228760770
H          -1.32191770823627   -3.77848419027521    0.38162614205957
H          -2.04933177640241   -4.00115613312237    1.84293750731234
