    26
        -50.45444098  Gyration_radius:  2.55396244826 Dipole_moment: 4.691
 S           0.48731412988066    1.18656870389705    0.60338951909610
O           1.34655038896651    2.14539051178266    1.43735217805379
O          -0.71525194382832    0.87368709818360    1.32110929452641
O           0.26673387259288    1.74754915263851   -0.71099302688957
O           1.37880398708313   -0.04477418375115    0.47919180732941
O          -2.16654368156335   -1.18176287861090   -1.27570367679237
H          -2.64576422051801   -1.44331257261746   -2.06324577046162
O           0.18629984874156   -3.29054634012035    1.15270972758220
H           0.85787091064355   -3.04206611296321    1.78985785928682
O           0.44679356739304   -1.79783984859142   -0.99037876590321
H          -0.49154945491131   -1.56959173842240   -1.17344610998714
H           0.99036168696883   -0.78762886285250   -0.20843275586509
H           0.40926011739071   -2.52072488626668   -0.30768685097537
O          -1.84817635845088   -1.61233025121997    1.48987152653683
H          -1.47040800252163   -0.72516360706751    1.60969066771200
H          -2.20838717715207   -1.61415294810827    0.59196524520220
H          -0.62649786240888   -2.78673384181563    1.40107579623347
O          -2.37523263907227    1.40867850064087   -0.87243811138622
H          -2.50137601179064    1.44969199730583    0.08130958329011
H          -1.43971051004423    1.65725324064187   -0.99849988201245
H          -2.29249511820236   -0.20058112643856   -1.18025124669848
N           2.99464323143427    2.46413780195751   -0.50018773172418
H           2.19707331372717    2.31677093899679   -1.11275164275313
H           3.62598188083361    1.68005998743964   -0.59789825065299
H           3.47621817380375    3.31126886846189   -0.77135031515347
H           2.11748788105117    2.37615241701140    0.80574091235497
