    26
        -50.45444079  Gyration_radius:  2.55430240907 Dipole_moment: 4.699
 S           0.89192970630876   -0.10315633777704   -1.09609295083237
O          -0.28760674515705   -0.55485917913812   -1.80000490582470
O           2.14229144454313   -0.41731608127270   -1.92725459210407
O           0.87977169635844    1.29125750523423   -0.75764401426719
O           1.09053907002778   -0.96022894231112    0.14997163673346
O           0.72424210590726    0.35364642735057    3.39760919793978
H           1.63302032842660    0.09154127283258    3.24222619877137
O          -2.30332477281873    1.22612267845998    0.95679393405124
H          -3.24807779349805    1.24715697280636    1.11582027720523
O           0.18989580043449    2.31617204936228    1.68506847957006
H           0.57809422932181    2.06323981273154    0.83100003908711
H          -0.76236856626290    2.18211919998477    1.57914120384000
H           0.59042518141784    1.19123242104988    2.89099739349682
O          -1.77350716726143    1.65142679564649   -1.58402063758993
H          -1.00964745207786    2.23526698466966   -1.53017774445724
H          -1.39127970898854    0.78140816809447   -1.80713681281545
H          -2.17549430351075    1.39937758788558   -0.01338982520523
O          -0.83058459984850   -0.91087882654409    1.70239329935630
H          -0.34019764794608   -0.55186023324228    2.49011725558692
H          -1.42805434168659   -0.18356023427168    1.41945414652864
H           0.22429100876652   -0.97715872338307    0.80094893788249
N           1.32465079576657   -2.80320862623450   -2.38582465032173
H           2.00528610376772   -1.39561204013985   -2.19353942215728
H           0.38542362620907   -2.41826918297764   -2.33345154002954
H           1.42321907510806   -3.33761533322344   -3.23892756064404
H           1.46706293670353   -3.41624413558207   -1.59407734382072
