    26
        -50.45444105  Gyration_radius:  2.55363880146 Dipole_moment: 4.689
 S          -0.70721865195694    1.22815122911262    0.05125817398030
O          -0.31927443852705    1.08301252653112   -1.32262335166720
O          -1.05073609376834    2.69624549319684    0.33394486769441
O          -1.81114755363102    0.38365308678605    0.45001437054033
O           0.47768714332316    0.97401006672671    0.97752046098625
O           3.44336571236617   -0.55014366204753   -0.15682335116093
H           3.61195496508260    0.35591191051611    0.10654705885609
O           0.12939400373164   -2.50334609056367   -1.19678519353429
H          -0.06142111425531   -3.44220238437244   -1.21841651907663
O           1.76524105792148   -0.44934119379279   -2.21666727113933
H           1.09516740860763    0.22245647413498   -2.00734243882100
H           2.96988169057478   -0.49999563184491   -1.02251504792310
H           1.31650379939955   -1.29844153889966   -2.09986046261511
O           1.23452672035328   -1.37729895515098    0.99441980196157
H           2.16474161994948   -1.20699658168407    0.68491287197978
H           0.77119837325589   -0.06873677244697    1.02162462209684
H           0.79641437104458   -1.83981829544980    0.24591907824313
O          -2.02249609153220   -1.09943107104687   -1.75844563330833
H          -1.66513670237976   -0.41144275818926   -2.32958661031236
H          -0.71841109426174   -2.03679632395489   -1.42303517559891
H          -2.14128224967856   -0.65470312414324   -0.89766664399914
N          -1.89567482562663    2.11651993321239    2.68383784312583
H          -2.68183914334302    2.51860975340033    3.17716276808811
H          -1.13699702473063    1.96900339074937    3.33617808749860
H          -2.16504215994114    1.21862040081333    2.29104490351368
H          -1.39939973205890    2.67250014839518    1.29538282060887
