    26
        -50.44993714  Gyration_radius:  2.70474354727 Dipole_moment: 5.810
 S           0.83116220173502    1.69910934873449    0.72817932811691
O           1.39075226760457    2.77115751329002    1.66748405367376
O           0.76055624450113    2.19260485705824   -0.60953839573252
O           1.89655693510034    0.58020898626741    0.84128180138444
O          -0.40673238683162    1.18137280439770    1.26573064652029
O          -1.18496769548681   -2.57649098478088   -0.63373926201573
H          -1.66160431860475   -3.38757390977661   -0.45513115443275
O          -0.41155196559277    0.47914087799873   -2.35926844670285
H           0.01611133793802    1.29411430664988   -2.05494816391693
O          -2.18732154477274    0.04336436403521   -0.44700358393359
H          -1.68458208329805    0.51265406115738    0.24077266059352
H          -1.20881498644254    0.39643089119270   -1.77709857875475
H          -1.98970211820259   -0.89879329510111   -0.32784886730965
O           1.15737619030234   -1.10295437457088   -0.89933905252226
H           0.48662552206175   -1.69951638607663   -0.53185331264033
H           0.66210724850141   -0.52134155917256   -1.53085898688394
H           1.68433105987121   -0.14359456149799    0.14918275083021
O          -0.71996009141818   -2.12505884455795   -3.24440049482154
H          -0.74349784588977   -1.15514623273124   -3.21353084625785
H           0.18773246577558   -2.35867472757993   -3.45132279562060
H          -1.12340590199010   -2.49740875150614   -1.61483266356537
N           0.85306712848416    1.42491158487588    3.77973614035733
H           1.52953248758995    0.70255463165255    3.98658982080813
H           0.49313573872706    1.80095669940580    4.64660060769140
H           1.28142767236450    2.36701725822770    2.60410278763779
H           0.09166643833254    1.02095541243585    3.24105399731166
