    26
        -50.45347393  Gyration_radius:  2.42439408601 Dipole_moment: 9.798
 S           1.36020388654286    0.77247056696730    1.46608812167928
O           1.40638983195372    1.11395166532299   -0.08011938372676
O           0.88225832050549    1.93068461853905    2.16341620244809
O           0.36937291492968   -0.34139971907307    1.57810648404253
O           2.68696790282312    0.29961944265621    1.75290063883158
O           0.84291205356814   -0.81609988147891   -2.23513815685485
H           1.26330981474222   -1.20805542545976   -3.00182537475300
O          -2.78991185805624    0.30592290713769   -0.15657123569623
H          -3.73406066085649    0.46690212103907   -0.15395182737242
O          -0.74271189160744    1.55896159516314   -1.54468519411948
H          -1.54610401155412    1.17540455942607   -1.15759875277551
H           0.57495959787028    1.49233833964998   -0.43577782863170
H          -0.32489138079492    0.87207764621910   -2.07825250070449
O           2.62028678746589   -1.30723561130699   -0.31120153977550
H           2.57497365192680   -0.73685927446898    0.49443763634855
H           1.53674789089690   -0.79030594023327   -1.52568111619434
H           3.54585352244386   -1.28497115841325   -0.56280855919036
O          -1.74808448310705    1.10286895975204    2.08130736462459
H          -2.44477367793890    0.66663926167739    0.71489306385046
H          -0.97890870710596    0.49019775099680    2.07577804525103
H          -1.32021157056437    1.95829591791550    2.20253886581413
N          -0.82777974816736   -1.57543931434004   -0.27718736273525
H          -0.23822655322540   -1.09463052938530    0.52347475555201
H          -0.28284194463441   -1.43599228516165   -1.15277487944614
H          -0.96177695658264   -2.55718481667417   -0.06578398906327
H          -1.72395271140135   -1.05816139674703   -0.31358346747929
