    26
        -50.45347338  Gyration_radius:  2.42453740936 Dipole_moment: 9.794
 S           0.27444310807168   -1.66171709145197    1.32357727788459
O          -0.18045681123096   -1.77433926871100    2.68244535376446
O           1.11735500577783   -0.43927615867571    1.15085209808873
O           0.91620396537201   -2.79405956604930    0.72179737935712
O          -1.04778401186509   -1.35490953720154    0.50645356593252
O          -2.14671898415087    1.33052445365005    0.03029309462270
H          -2.93118849947788    1.85429990951564    0.19932255554399
O           1.42172873417886    0.65004467607729   -2.33661181841005
H           1.94156540004470    0.80174831164147   -3.12661828195260
O          -1.54081501294824    0.45186520507728    2.47368506647962
H          -1.97966048907897    0.81241085271519    0.86013610460887
H          -2.27602516874848    0.24748059805382    3.05530037071448
H          -0.96011421102990   -0.34569792069137    2.52851627537365
O           2.49379865224807   -1.23982737425894   -0.91980487020617
H           2.15195424989007   -0.94107058538823   -0.04753326395007
H           2.20377936918793   -2.15908820276313   -0.94254715005339
H           1.86536025015908   -0.11160205752842   -1.85511573442538
O          -1.06996527920079   -0.51746400329730   -1.99536376068953
H          -1.62868378718117    0.15972441844511   -1.59534919136514
H          -0.23693672534468   -0.09042474352773   -2.25231794404702
H          -0.91960141167653   -1.29477017429905   -0.46348309903431
N           0.50720165755863    1.72431815809327   -0.00966957311737
H           0.91208643518295    2.53464917628618    0.44415509957731
H           0.90643760476351    1.56488580114884   -0.95162443894368
H           0.73766097808110    0.81339954858982    0.57032990843244
H          -0.53162505856659    1.77889557454622   -0.05082503417583
