    26
        -50.45601917  Gyration_radius:  2.44963388506 Dipole_moment: 7.014
 S          -0.32572217411124    1.40518346912758    1.41275761423067
O           0.09371164369957    1.41390409770331   -0.01131276408846
O          -0.95436066995657    0.14548160432229    1.76523617875904
O           0.80840344599960    1.72636506297499    2.25259197606353
O          -1.38988553355084    2.53993941104137    1.53945066282005
O          -1.98008954403101   -1.33670210113781   -1.53166360616113
H          -2.65609555467580   -1.97765685529305   -1.75406053593226
O           2.11090759152075   -1.49178623950456   -0.52597925059287
H           2.62469164335965   -2.13356931121558   -1.01796210802833
O          -2.91432598797087    0.83587675080292    0.10863821811747
H          -2.45475308329629    0.34954263389444    0.81214939925418
H          -2.11135974215108    2.22925377035213    0.96076358698990
H          -2.68940410526676    0.35032392969836   -0.69867732227196
O          -0.50059166802405   -2.15553215774238    0.51656620926232
H          -0.68286893422654   -1.38791468643513    1.09519471382154
H          -1.49500457206751   -1.70472553406681   -0.74959096050785
H           0.44002001644575   -2.09724806032318    0.30458849142095
O           0.45352093438434   -0.24161662084644   -2.09222824237910
H          -0.39014644780209   -0.71475875390792   -2.18432333770309
H           0.23858326713450    0.47677721359362   -1.46855854128738
H           1.48714479264237   -1.06122261910302   -1.18800676509568
N           2.52278407342235    0.96115745702926    0.48729201597998
H           2.61390496031497   -0.05333552833285    0.26463184505315
H           1.59407979202419    1.27295357547429    0.02306387806639
H           2.22448155860513    1.14645458234597    1.47366633580988
H           3.33237427757903    1.50285490954718    0.20577229839978
