    26
        -50.45479430  Gyration_radius:  2.47158182074 Dipole_moment: 5.888
 S          -0.09575026126641    1.93404729803536    0.82411997382155
O          -0.65429667307462    0.62116200281701    1.09415703163918
O           1.11156423526946    2.15428197755995    1.73601153827078
O           0.50713518418546    1.91224382019598   -0.60044772343417
O          -1.01219185878927    3.01527947470627    0.92659805799909
O          -1.96419483455209   -0.89895429459560   -1.82704859427265
H          -2.49391032202542   -1.03650925412841   -2.61349829898346
O           1.35306933558995   -2.21869404904779    0.26365841023437
H           1.58551887624955   -3.12962860286906    0.07885506945388
O          -2.79178896990987    1.20761720500206   -0.41143672963111
H          -2.72843242058396    2.16365290907318   -0.48372839795727
H          -2.32921098113244   -0.10107478549847   -1.38068725997623
H          -2.17828806674209    0.98305642283396    0.30901065508479
O          -1.21519738194772   -1.98830615814580    0.68100714905548
H          -1.13052129656298   -1.09561682537755    1.05436157044574
H          -1.61387850650566   -1.84972725157014   -0.19079578120118
H           0.38830874320695   -2.22151127316746    0.51740525645350
O           0.70754753606193   -0.38917884845206   -1.65048996075276
H          -0.22970066487445   -0.60849326767189   -1.81960037252208
H           0.60952351902873    0.97885808538037   -1.00931880949108
H           1.02017010730373   -1.04619673119271   -0.99731237896569
N           2.68432237947291    0.25264177911895    1.08180578909847
H           2.18179635351556   -0.62822323945653    0.98953352617093
H           1.77878595812416    1.36838437072729    1.53506946946730
H           3.45727143966238    0.11876099178246    1.72056067114732
H           3.05234860028422    0.50212823387733    0.17221013898610
