    26
        -50.46116092  Gyration_radius:  2.45250748729 Dipole_moment: 8.891
 S           0.19158257506799    2.07051560659289    0.44720258039407
O          -0.14379129067815    1.23622744617442   -0.71131216648068
O           1.44661217192962    2.74059790050293    0.31070570856077
O          -0.94792714154138    3.13121866769975    0.58473082543264
O           0.12904967041242    1.22551716792415    1.66655251478101
O          -2.05931910156607   -1.71611921721855    0.21830635062312
H          -2.71206550401763   -2.40057055755632    0.06852563420063
O           1.99215948320326   -1.56891106630276   -0.90577821590334
H           2.81152277405636   -2.04651640836135   -1.04081362317025
O          -2.49080575674034    0.99191302328518    1.24014146956199
H          -1.74991596597872    2.59291500226298    0.68470469516966
H          -2.55423071193351    0.15262613090125    0.76612562151132
H          -1.61470256032591    0.98638979191662    1.65944275635740
O           2.31282352206599    0.92891981684633   -1.56661755017017
H           2.71209150167014    1.58967063648917   -0.98884194961023
H           1.35714508174251    1.12527030064040   -1.46919707671461
H           2.17609001830497   -0.62299048357007   -1.17512581897439
O          -0.70846361991305   -1.06639152002839   -1.90424769176940
H          -1.66086785134367   -1.49477456973888   -0.67093660586754
H          -0.60437321983664   -0.13593756097102   -1.62385893057069
H           0.18282806295684   -1.43404001740319   -1.86199422484263
N           0.39664300685037   -1.28369903943099    1.26411584289736
H          -0.56147940547965   -1.58883509365531    0.99162806657993
H           1.05374688879798   -1.45122731678434    0.46988986627293
H           0.33864112911945   -0.20702681299270    1.43960659396240
H           0.70700624317716   -1.75474182722311    2.10704532776825
