    26
        -50.46489349  Gyration_radius:  2.55412599646 Dipole_moment: 4.637
 S          -0.38805765084220    0.41650384250907   -0.59778903198910
O          -0.97620896997097   -0.62257441921624    0.24777489154321
O           1.08930076606123    0.35793365426734   -0.51525617741454
O          -0.79159731309371    0.17031284181351   -2.05174213711232
O          -0.84259769257686    1.73764492666485   -0.21348883210843
O          -0.27314644967358   -3.09967212455188   -0.32092811528480
H          -0.50774992131440   -2.19364817087988   -0.02175366738596
H          -1.05796525383109   -3.63452266137137   -0.19025844849273
O          -2.28148142463255    2.20830554925878    1.94578291962030
H          -1.81006693574372    2.09987839469140    1.08849252181945
H          -3.21498091733193    2.14232064578805    1.74026937145929
O           2.57380288744630   -0.82069471572066   -2.39952496844909
H           2.12496021788374   -0.39520337900084   -1.64081366690256
H           2.71796524054548   -0.12895100014812   -3.04756710307651
O          -0.70373507809179    0.20572951085183    2.72954011713309
H          -1.41238829362599    0.88386205368036    2.73004905259849
H          -0.85123210464241   -0.28558445720310    1.88829772992400
H           0.44589700691295    1.03919450106277    2.27580575218317
O           0.20380519774776   -2.04359948729611   -2.72718351514149
H           1.15332939229162   -1.79866266606766   -2.73745585111820
H           0.08347623915367   -2.59565536871676   -1.92260431888834
H          -0.42789340357481   -0.74878130850463   -2.36482931400687
N           1.15345676838142    1.65289510688180    1.69691636398357
H           2.03286669578001    1.81270333752365    2.17826493051248
H           0.68422439917933    2.52591617569195    1.46043791704409
H           1.27601661756419    1.11434924799130    0.76956357954670
