    26
        -50.46116092  Gyration_radius:  2.45255919803 Dipole_moment: 8.893
 S          -0.39759975270405    2.08766449137818   -0.09786406356916
O          -0.44153670902252    0.93178082643805   -0.99928050823945
O          -1.78685581810828    2.79569875239914   -0.20351841583664
O          -0.28396817020565    1.59012073774581    1.29650606823910
O           0.63381672556394    3.01933862577147   -0.43101213479690
O          -1.52424380000321   -2.10305364985864    0.69940378247917
H          -1.95993690633490   -2.95466450263896    0.74404907030033
O           2.38144564974949   -1.13908988364527   -0.52956269307126
H           3.30420942276862   -1.39418498547443   -0.56276319683843
O          -2.72005477009723    0.54968335614156    1.01055069637669
H          -2.41677096036254    2.10130181137671    0.04919190620046
H          -2.53244480656067   -0.36614278365739    0.76732164604425
H          -1.89478306447454    0.88940082366403    1.39399416090002
O           2.04405230551111    1.10369332887288   -1.80803819999957
H           2.31466212676014   -0.27725986323213   -1.03351869781786
H           2.22156857197292    1.97083737460356   -1.42541208195617
H           1.06741826860592    1.04878144282541   -1.74116356041132
O          -0.30566482779239   -1.66043401917133   -1.55229452429784
H           0.64907806077447   -1.74702835118256   -1.44102550278725
H          -1.16076748824851   -2.01061415192168   -0.22688463345194
H          -0.47075300199988   -0.69763728311719   -1.52000783677799
N           0.67196659999270   -0.76726498294001    1.53813578368208
H           0.31630679467962    0.26059659249273    1.43567337167485
H           1.05958080518051   -0.90777082654648    2.46480275217583
H          -0.15406341751544   -1.38132991761237    1.37681785198322
H           1.38533816187023   -0.94242297271120    0.79589896979668
