    26
        -50.45289442  Gyration_radius:  2.64835838115 Dipole_moment: 2.978
 S          -0.63216821988562    0.03036215804952    0.51204586995930
O           0.38746741507358   -1.11971538665900    0.62446123832037
O          -0.43558481624669    0.57264385940929   -0.89961025240098
O          -1.95897814016184   -0.52479372017989    0.62649479240734
O          -0.29657116841290    1.05803436742131    1.45127324739120
O          -3.76442626632943   -0.02338016923949   -1.33822025054717
H          -3.27822496439808   -0.22019521031775   -0.51732600419950
H          -4.11525654094362    0.86319515065304   -1.24462243743603
O          -1.41625546193358   -2.84618063489259   -0.65406348394892
H          -0.52190842469237   -3.00866200312070   -0.34333187549570
H          -1.78377082951286   -2.18154702532187   -0.04660417289962
O           3.74104834521878    0.75890134248774    1.13754416047223
H           3.13032107430392    1.38306265292046    0.65870400740967
H           4.12725574551458    0.18613802141364    0.47337981124459
O           1.80619077728591   -0.35508154033493    2.52278653945298
H           1.23389323671003    0.39915686332114    2.71334053035106
H           1.02553891576555   -0.89430255258947    1.41904405367526
H           2.62873173099631    0.02389091464003    2.10790170670580
O          -1.54284888352737   -0.95468149803368   -2.50973609865170
H          -1.49233218124568   -1.81370877178526   -2.02548718209611
H          -2.46566042767256   -0.65023278086356   -2.38174849542521
H          -0.86844764749112   -0.07412426658930   -1.63839620903881
N           1.86269740294237    2.22863326381392   -0.07175048780164
H           1.62387575491764    1.94031403095325   -1.01336810882266
H           1.94315936135741    3.23830858876225   -0.07127105567177
H           1.06225422237040    1.98396433608423    0.50856015705307
