    26
        -50.45305791  Gyration_radius:  2.45617708337 Dipole_moment: 10.321
 S           0.07313016897753    2.08491073359350    0.45984580069578
O           0.88855934299789    2.02686550152195   -0.77435392128512
O           0.98770097966127    1.26221522287695    1.46368921179352
O          -0.15439885148143    3.39705982818814    0.95754030229848
O          -1.13486073539347    1.27106173452568    0.28363289336063
O          -0.56128804260941   -1.10557108438622   -2.48384192032929
H          -0.72100147441859   -1.45445114464847   -3.36108859960214
O           0.55751747196617   -1.93121832001613    1.37626746524318
H           0.60624322215303   -2.87948812062720    1.50449169849965
O          -1.61294054186626   -1.32276702082525    0.13612250673958
H          -1.59392290545741   -0.35382663567625    0.29793362917596
H          -1.46104308206400   -1.42026380251847   -0.81467037858527
H          -0.34182314628159   -1.75228439362487    0.95653720215930
O          -0.01079812212541   -0.17448619597408    3.44097689332500
H           0.68482720596064   -0.18387662867276    4.10097105415950
H           0.45426779504599    0.95535280631375    2.22619373410981
H           0.17186845237074   -0.90478169329264    2.82182306142192
O          -1.27459868471403    1.38366050930428   -2.32282619417177
H          -0.47601945459007    1.92198425532397   -2.38051096578934
H          -1.46431336809855    1.38909042383911   -1.35674040809743
H          -0.88907607234372   -0.15470938766203   -2.49454310977773
N           1.47181742628348   -0.43520566789110   -0.80741427209093
H           1.28477960396276   -0.85232065623945    0.12122533248854
H           0.81358339092132   -0.83685716229447   -1.50539199482327
H           1.26468520418692    0.66043160508114   -0.76782976663832
H           2.43710419695920   -0.59052469621634   -1.07803922427994
