    26
        -50.45305798  Gyration_radius:  2.45610181108 Dipole_moment: 10.323
 S          -1.40615340243662    0.69637733849861   -1.45040680537553
O          -0.05375270857410    1.21771286593493   -1.22331794190216
O          -1.23338862617989   -0.87807313080413   -1.55836424541692
O          -2.19176608364781    0.80752463784795   -0.20047194073921
O          -2.05939369156048    1.20487442620471   -2.60631966231430
O           0.60751095890730    1.23599012350422    2.41025194455607
H           0.77100786763724    1.66796355327702    3.24895425078949
O           1.27426670759866   -2.07456339161860    0.08129117655419
H           1.93191565366409   -2.63545853866644    0.49468728077523
O          -0.61166282394408    2.82414274520801    0.76028453770894
H          -1.54383503491350    2.57556301131586    0.74859742886570
H          -0.27303119458454    2.41484074191643   -0.06864192085129
H           0.16311759594223    1.92037302646852    1.82223287032752
O           2.05203237088056    0.37721660330366    0.13291856201061
H           1.66860391534753   -1.14648426567687    0.06625026626406
H           1.39813777916408    0.73948913931073   -0.50458424705670
H           1.80566985751655    0.75870219485809    0.98763507383828
O           0.88734696173721   -1.99971867739180   -2.65993366344079
H           0.56453554461551   -2.84247862929794   -2.98416826900672
H          -0.48591427826920   -1.09158887702426   -2.15502135655661
H           1.13767930924136   -2.12862357157293   -1.72677334251819
N          -0.87540444888477   -0.75231220860108    1.29473168397059
H          -1.48350146991106   -1.32775620973060    1.86763092791853
H          -0.30113863865270   -0.11110724295454    1.87827612504979
H          -0.25140819170020   -1.34549445058297    0.72022874240446
H          -1.49147390898556   -0.10711122374383    0.62403250412692
