    26
        -50.45305796  Gyration_radius:  2.4562500717 Dipole_moment: 10.320
 S          -1.74442928854727    1.18658793843952    0.33836888125178
O          -1.82916730071290    0.46307581827923   -1.07237645869518
O          -3.01934331990153    1.69039301014744    0.71548140289464
O          -1.17870196134622    0.18670547677487    1.25099944692943
O          -0.72893179658909    2.22707482485143    0.05922146332548
O           0.36376223499392   -1.85337570676671   -1.53861943732780
H           0.91960933195281   -2.55008044492139   -1.89030165617134
O           2.50520878503217    0.42345556812703    1.11827889230946
H           3.36527839482298    0.61725220734545    1.49181547819018
O          -2.38577162350816   -2.10556491804249   -1.32141379760559
H          -2.22517395888695   -0.42719647896576   -0.96820791688211
H          -2.79351301635808   -2.17413255830107   -2.18667621752412
H          -1.42180380401830   -2.16305807722816   -1.45363680322376
O           0.64600018203351   -1.70891750789705    1.01444712356228
H          -0.12828467012459   -1.13461253420433    1.20427312072112
H           0.46190498737036   -1.89755474115149   -0.53587630621506
H           1.41846686943747   -1.15850811873762    1.20675266505344
O           0.62942693203014    1.70045294234989    2.37614760001054
H           1.83609746649147    0.92796295442060    1.67448233943045
H          -0.09557350690570    1.06191141685701    2.18623654848313
H           0.38140887145679    2.46211476404790    1.83836944564472
N           1.02286686820854    0.83655433358968   -1.12375543182941
H           0.61291152063770   -0.06695867210773   -1.41867282048029
H           1.74145866011449    0.66682659686082   -0.39135337264133
H           1.41637207862391    1.32468439474652   -1.92123605385346
H           0.22992104369272    1.46490750148826   -0.65274813535515
