    26
        -50.46437119  Gyration_radius:  2.49448699619 Dipole_moment: 5.808
 S          -1.07301647723482    0.23167075342878    0.20782147714942
O           0.06139677668816    0.37944316725242   -0.73056641370770
O          -1.04909975168091    1.29102685892251    1.19518088416794
O          -2.37291401752169    0.33142881586202   -0.63498917824138
O          -1.08940398343974   -1.10615688405854    0.77430491490025
O          -0.15251893464644    3.17412005143716   -0.40462421740791
H          -0.45038999874458    2.60081451984215    0.33548278818821
H           0.38598139984797    2.59416980306681   -0.95247719085104
O           1.75277603983267    0.73609902599099    1.28405184564091
H           1.24397596687018    1.35409913858278    1.81724576150168
H           1.23358726850764    0.64492498159834    0.45848095539781
O          -0.16618667664451   -2.05340454755891   -1.55457526278394
H          -0.86486894883741   -2.20022660024436   -0.89991113581230
H          -0.04313648570586   -1.07482112800160   -1.48978627748705
O           1.11768647149812   -1.72278520537329    2.01809799010901
H           1.65503220385727   -2.32490955293762    0.81527929927311
H           1.50401362474644   -0.81634832884001    1.97755949255069
H           0.18264380313115   -1.57906513655185    1.73087142140135
O          -2.58631993538058    2.82195054205112   -1.36398471515564
H          -3.18440809444835    3.24790618439568   -0.74613832606312
H          -1.67611357468289    3.12308730279772   -1.11775078875560
H          -2.48675896502665    1.26248547853975   -0.97543326716279
N           1.97194840039905   -2.67007199991924   -0.19905274384822
H           1.11122597990368   -2.48904422996669   -0.83433241365617
H           2.22249732854424   -3.65308622096248   -0.19415603640462
H           2.75237058014456   -2.10330675932013   -0.51659885294368
