    26
        -50.46137991  Gyration_radius:  2.45081477579 Dipole_moment: 9.009
 S           0.13950720739773   -0.98122670915678    1.93230071209453
O           1.05429828531236   -0.98994700091261    0.77109515467358
O          -0.49198645324860   -2.24730037468123    2.14946249344763
O           0.99869193432738   -0.62317684476581    3.18888988260953
O          -0.82732389803017    0.11608336222653    1.77573571304902
O          -1.38899132078214   -0.95818663495010   -2.08925357216513
H          -1.93648182805519   -1.37731796294916   -2.75418514975448
O           0.69338162963189    2.52639767427264   -0.86388098412878
H           1.10178751783511    3.21381285485583   -1.39084382405416
O           1.23466704083288    0.10044068273260   -1.68484854981845
H           0.45617202982566   -0.28804673701609   -2.10519671993864
H           1.03654962616019    1.65911040578855   -1.21243609546518
H           1.31141554104741   -0.35351954724614   -0.82416201768010
O           1.90331709785679    1.39525376011193    1.60281536193977
H           1.80629541792518    0.54347096502762    1.14536869469218
H           1.44749460665420    2.03742778485845    1.04652717677172
H           1.38900182911412    0.23542665744041    2.96471970984897
O          -0.45695686910545   -2.77690191908887   -0.47587028558986
H           0.33707117460500   -2.29552215249592   -0.17883374639555
H          -1.08831769156923   -1.69152511635338   -1.47803559649179
H          -0.88216271564614   -2.97556477411576    0.37139548943502
N          -1.59044505906557    1.16273783183035   -0.40125395336020
H          -2.49470153083307    1.60358156849551   -0.27792380518260
H          -1.27335191732619    0.69441018067565    0.54415834773678
H          -1.62387721268885    0.41232290841257   -1.11947319738736
H          -0.85505442217252    1.85775913700387   -0.63627121888553
