    26
        -50.45450937  Gyration_radius:  2.45189899604 Dipole_moment: 5.290
 S          -0.45727275989081    1.84559868884978    0.86371596930186
O          -0.47650225218507    0.43276642324994    1.19661670834513
O           0.11562810058740    2.69935350397295    1.84030172526525
O           0.30627577450742    2.04614556212348   -0.45617743210429
O          -1.90618356441134    2.26645315927295    0.53515344572771
O          -1.80877489068448   -1.60394986785179   -1.35273324476899
H          -2.17688182814044   -2.37004274710368   -1.79436731324428
O           2.23656149720319   -1.14671548543518   -0.71888898009976
H           3.09090438377658   -1.28138211236673   -1.13087123634160
O          -3.10002556236053   -0.01365380127850    0.43581094470415
H          -2.76314766892513   -0.52311024166417   -0.32863789939264
H          -2.61076443685725   -0.34534412798056    1.19602745418049
H          -2.46630475186482    1.43705833930939    0.43762695020663
O          -0.05308496034975   -2.13893370994693    0.49565660856795
H          -0.18159679606243   -1.27617860413502    0.92748120785980
H           0.82439694412495   -2.07521861771583    0.08953595150603
H          -1.18242486507379   -1.94024805130037   -0.64943819469873
O           0.21846212497281    0.09119502208439   -2.05135898260450
H           0.21081876223731    1.27738271606997   -1.13288017626880
H           0.96525215459717   -0.42340098651861   -1.67986416036920
H          -0.58127556979204   -0.45061843351942   -1.92201362234628
N           2.41991845870018    0.76970633157663    1.12672494279920
H           2.36240609482086   -0.44391214138202   -0.01742398590175
H           1.50194557888406    0.67800146565609    1.55049307095623
H           3.09953435405088    0.81801839454526    1.87679687066630
H           2.41213566911294    1.67102933012707    0.66271338697907
