    26
        -50.45450941  Gyration_radius:  2.45187131075 Dipole_moment: 5.289
 S           0.61707590030324    1.80329306058096    0.85416864001189
O           1.15503395709477    1.67892836374182   -0.58128593484558
O          -0.01102551948088    0.55287363554074    1.24060604424100
O           1.67717972065707    2.24185242579938    1.68760360256642
O          -0.49382653482874    2.87124432547021    0.75526127849523
O          -2.54633768734425   -0.50133523531785   -0.96720391824338
H          -3.29897647764483   -0.98372756382909   -1.31112123421887
O           1.27731253385121   -2.03162569483698   -1.03653125234522
H           1.88563349044401   -2.53486605573489   -1.57919881989866
O          -2.61965431075366    1.42949600492169    0.94645669042592
H          -2.22672914705108    0.87346116356569    1.62746252756188
H          -1.38617595494412    2.40870188991126    0.78525280482807
H          -2.69409920936365    0.85541256481744    0.15763820993460
O          -0.97186997561600   -1.88188595082895    0.58198634093853
H          -2.04581680309990   -1.12388807186192   -0.36549989701641
H          -0.60516822173148   -1.08035729494635    0.99467815139788
H          -0.24917045958273   -2.22059481192695    0.03246256527908
O          -0.10735870625236    0.06916983450345   -2.06101053782034
H           0.59766545792103    1.07688538191416   -1.20162872634046
H           0.35859448608460   -0.75248474551142   -1.79962845996276
H          -1.03401569783618   -0.03740151090132   -1.77838447138498
N           2.64480611632098   -0.51249374242308    0.67629783858829
H           2.98743523501987    0.30549463556591    0.18511953350797
H           1.83386534442505   -1.50311711667272   -0.39394847728683
H           3.37945572014246   -0.82399808787721    1.30085452353453
H           1.87616674471599   -0.17903739244355    1.24959296820041
