    26
        -50.45450935  Gyration_radius:  2.45186174706 Dipole_moment: 5.289
 S          -0.79392179191049    0.80532759285649    1.75583848961393
O          -0.35847401709812    1.68818762163150    2.77652192550461
O          -0.47818324801027    1.20885526700533    0.39764210436714
O          -0.18507377680047   -0.58043191458366    2.02851868270699
O          -2.31888782730993    0.57434952660711    1.83045900583336
O          -1.49668699288483   -1.12054075351436   -2.04344586981900
H          -1.71445573038199   -1.49342491503809   -2.89843842690410
O           2.38009317194014   -0.83937688615712   -0.68049582790956
H           3.21284504858747   -1.31215658147943   -0.65372367454304
O          -2.98331112084456    0.68505325116433   -0.65555204302472
H          -2.38147718518327    1.41828067686675   -0.82154894823724
H          -2.59528415788498   -0.07788109295649   -1.12952570002119
H          -2.68745025149900    0.56342946568334    0.89499657280610
O           0.05295351767768   -2.06493076396668    0.00010653724168
H           0.91839015896868   -1.72968168579269   -0.31460685825210
H          -0.15440677715589   -1.20848936636861    1.21462002955615
H          -0.59669208276526   -1.84432735554273   -0.69212971581250
O           0.45467965012306    0.60513459309158   -2.06224863394512
H           1.26665140151474    0.12654296920431   -1.83744570619128
H           0.16852271505995    1.00232917583357   -1.22110270577294
H          -0.76556118128570   -0.45394394472087   -2.18880500383896
N           2.26037774026919    0.88756366912024    1.34832042003759
H           2.96327475664674    1.57476943168251    1.59418429588413
H           2.39482149920908   -0.18636939205392    0.07789088896662
H           2.01916053726113    0.38122286701599    2.19279303701833
H           1.41809594155468    1.39050855793530    1.08717711241237
