    26
        -50.45450917  Gyration_radius:  2.45165753895 Dipole_moment: 5.287
 S          -0.57353899547409    1.78562840584623    0.91749973577545
O           0.06605544889447    2.84188148622248    1.61468313152318
O          -0.74683055581876    0.60558612064839    1.88847891635656
O          -2.01584447763542    2.16999966838365    0.52175415709184
O           0.10119112402971    1.32424815238799   -0.28224482797987
O          -1.51413110753196   -1.37592625984911   -1.86777995003446
H          -1.74750045481851   -2.02026348444467   -2.53698723375970
O           1.76152010419502   -1.83890957687135    0.58690619681643
H           2.24868178424642   -2.49388940968762    1.08826430024968
O          -2.15306539459520    1.26754780191006   -1.88673012415964
H          -1.25699252997912    1.55815108921823   -2.08654269760440
H          -2.10832922018218    0.29031224403096   -1.86946925333128
H          -2.19454457498085    1.83027335886477   -0.40765860495677
O          -0.94162857261780   -1.65918789114886    0.78963326800194
H          -0.89708069185221   -0.30607094316260    1.43671626085054
H          -1.29083206654782   -1.59738598677239   -0.11823363038603
H           0.01555041689769   -1.85244883328425    0.70597949797355
O           1.00072396596965   -0.69841519404105   -1.82642491967523
H          -0.54077951410262   -1.17439471711921   -1.97804231076145
H           1.43913451487727   -1.25290912701510   -1.16364933409638
H           0.81264836936455    0.13376961264191   -1.35807869089079
N           2.17360112595151    0.58100757512451    1.63020053074081
H           1.72330250896987    1.14610119395364    0.91711707870446
H           1.59570884225696    0.68223481138519    2.45694446901988
H           1.97029732390550   -0.94940508256561    0.99543196699118
H           3.07268263657785    1.00246498557830    1.83223206755421
