    26
        -50.45450927  Gyration_radius:  2.45172014163 Dipole_moment: 5.286
 S          -0.50289332358179    1.90568474091848    0.68904941922585
O          -0.05194557211137    2.79131601106473    1.70058889317913
O          -1.86340856731242    2.35814620314903    0.11576185327952
O           0.46468978226605    2.00597450628955   -0.50234632671083
O          -0.63496563966977    0.51488347067695    1.08360458243801
O          -1.64855894654457   -1.61081272709207   -1.53498516916703
H          -1.97611107803041   -2.38667948613046   -1.99128005335471
O           2.26821773527071   -1.26256774160778   -0.30691633527493
H           3.16874850640143   -1.44821140336798   -0.57589038407436
O          -3.12888207757677    0.12124714012481   -0.05046472459286
H          -2.70105627219371   -0.44203124670809   -0.72655209306388
H          -2.77773085341114   -0.18460815127637    0.79240733158280
H          -2.43854968462954    1.54507302286174   -0.02406472101157
O          -0.22035139992159   -2.10554532296753    0.58656629052068
H           0.71067007182329   -2.09484620982730    0.31804843061778
H          -1.15214352340745   -1.92994245752707   -0.72764987149772
H          -0.37608373000856   -1.21618126473274    0.94996211590723
O           0.53288518949229   -0.02952828986917   -1.99476381398676
H           0.43886345306311    1.20557405683777   -1.14765710473980
H           1.19110580898606   -0.54901095970662   -1.48743296902096
H          -0.30028549405565   -0.53429475820285   -1.96339723987387
N           2.24925687196478    0.74276768506736    1.45137878098304
H           2.31559670689924   -0.52782060260596    0.37106602701078
H           1.27381474230129    0.70690265171208    1.73045611380556
H           2.80669096303338    0.80707072778591    2.29515618780044
H           2.35242633111229    1.61744041397825    0.94935477970199
