    26
        -50.45450908  Gyration_radius:  2.45169449946 Dipole_moment: 5.289
 S          -1.09360705657914    1.24648116230070    1.26914088088237
O          -0.86278443852701    2.44496302912557    1.99105866843561
O          -0.47752337482173    0.08215578676829    2.06278611666503
O          -2.60005187276750    0.91277037557721    1.20766861576746
O          -0.58426812631201    1.22277143055690   -0.09011132058339
O          -1.11005818632481   -1.84317414270252   -1.74345773757934
H          -1.17429387206934   -2.48839995295801   -2.44848536690806
O           2.49046376538261   -0.79460067454904   -0.03727943959089
H           3.32465745426011   -1.15949800007142    0.26052912177264
O          -2.86764888683490    0.17186845920611   -1.24455199917473
H          -2.27469309831348    0.86399108241843   -1.55580619417481
H          -2.38048808541612   -0.66507241264926   -1.38376868719837
H          -2.81574600333224    0.57435773211440    0.28562628136191
O           0.13732341852535   -1.94271817225590    0.68603808544444
H           1.02678872738384   -1.64829570778637    0.39837805912909
H          -0.29319552233788   -0.76709848915768    1.51239197900870
H          -0.40443595735507   -2.01347341436237   -0.12111690275184
O           0.74848620330855   -0.04630853725660   -2.06469674356479
H          -0.39274207248712   -1.19527022126377   -1.99983457482916
H           1.53437326912206   -0.35306477114577   -1.58820480335117
H           0.31775297778196    0.57059593944193   -1.44739188765535
N           1.98168165056093    1.47156485041707    1.27373446850521
H           2.35887896252139    0.06517373202863    0.45800622497566
H           1.16823838400305    1.78347885239529    0.75255160909621
H           1.63599584119343    1.24334942654295    2.19901213825641
H           2.60689588503202    2.26345262631626    1.36778341783612
