    26
        -50.45556834  Gyration_radius:  2.43277366108 Dipole_moment: 7.577
 S          -0.28871317028546    1.28065983808654    1.39894353066427
O          -0.10282259225282    1.15604710160678   -0.04104115110235
O          -0.79365670348936    0.06902958272590    2.01539899755044
O           0.97347932373132    1.73174277573864    1.99880819024705
O          -1.33591613018858    2.42234511077065    1.62727296299180
O          -2.06828352732559   -1.47518862056700   -1.23640927159471
H          -2.75845015999738   -2.13788635041522   -1.28413895946415
O           2.09645775565090   -1.27961715151285   -0.73681450520773
H           2.67215106395106   -1.84939730514241   -1.24905870526168
O          -2.97023976979979    0.58374171965028    0.53971021446638
H          -2.44965292130451    0.13871749528226    1.22542906114182
H          -2.13197337690546    2.05877065998348    1.19537004647488
H          -2.74148695480288    0.11336257554855   -0.27782305738534
O          -0.30066779978628   -2.13606611921377    0.63061627780159
H           0.59724250904720   -1.98758396481020    0.30897646953949
H          -0.47963850470501   -1.39545653098462    1.24645930487419
H          -1.44704730238046   -1.77496627614137   -0.52446699630115
O           0.21488166537334   -0.29593656332151   -2.20398353708458
H           1.36572219831252   -0.97009968890583   -1.36352848599664
H          -0.59213731776875   -0.83397365061417   -2.20613680279252
H           0.02341433258657    0.36574123717476   -1.50765081698170
N           2.54636155006414    1.24471740482738    0.07825865847293
H           3.50598851091314    1.56302978621855    0.17050310836877
H           2.04525343512185    1.73489936006997   -0.66211927712260
H           2.48170823179209    0.21639546291010   -0.13453284155788
H           1.93802566444922    1.45697210103464    0.99195759525981
