    26
        -50.45450929  Gyration_radius:  2.45180936355 Dipole_moment: 5.288
 S          -0.40214499724791    1.61183005474089    1.26514991699132
O          -1.90509357051369    1.96597257300395    1.24862909322769
O           0.00197389206432    1.35459969655975   -0.10516617400756
O           0.34964853157183    2.59812723433989    1.95275791422384
O          -0.32801017966474    0.30382753910893    2.07072165165881
O          -1.85518702735903   -1.19730023430759   -1.67190339782947
H          -2.21603498889412   -1.75651206192884   -2.36077765424569
O           1.89715490385558   -1.79721746824627   -0.07948468345028
H           2.50092943651677   -2.48461650233105    0.20440629002721
O          -2.54987761179855    1.38482398325865   -1.17628125219616
H          -1.72881942363704    1.74994561450191   -1.52243591932627
H          -2.47649462451336    0.41799990614585   -1.30758698275248
H          -2.27659370155246    1.74315497595076    0.34113974484656
O          -0.69674735155424   -1.80248633074823    0.72841111340238
H          -0.54797859686744   -0.54715108552864    1.53636024681667
H          -1.24125241994369   -1.64004261463717   -0.06349740180129
H           0.22253015916818   -1.92683729328168    0.41223568058970
O           0.58710389481238   -0.38910371985663   -2.08023623065567
H           1.17727974294772   -1.00101648781754   -1.61537161563954
H           0.48655744241989    0.36062895749965   -1.46777281713088
H          -0.93640100633094   -0.92785789844019   -1.96058632234159
N           2.46394037628954    0.47850533744571    1.19042550914758
H           2.16731114937471   -0.96057489116403    0.39889309168271
H           3.37339429118287    0.92103697854199    1.25233690326684
H           1.85109769693029    1.10776071906095    0.68137435442925
H           2.08171396266099    0.43250303810647    2.12825896107684
