    26
        -50.45450903  Gyration_radius:  2.45186471234 Dipole_moment: 5.297
 S          -0.60506554769440    1.99219658565524    0.17437543353124
O          -0.61276507246409    1.30519055674775    1.55028595594530
O          -0.01399418367433    1.09800659039701   -0.80465738609578
O          -2.09906463486523    2.15117374679102   -0.18206802705629
O           0.02551673082298    3.25454584676123    0.31393006935924
O          -1.58507213914498   -2.05632658156040   -0.96704746606112
H          -1.83581030121798   -2.92303837185140   -1.28864012128940
O           1.93139278416447   -1.39603770548133    1.07376015649775
H           2.51138391004949   -1.77916225865273    1.73300266641278
O          -2.39833341844467    0.33274249980904   -1.98156023982821
H          -2.28806522140277   -0.55021733096738   -1.57484464880222
H          -2.34103953794951    1.45419070665069   -0.86518530788337
H          -1.54496564957098    0.53625015168239   -2.37885050491262
O          -0.74672924220503   -1.21517326803739    1.49367418219395
H          -1.18299143282689   -1.53965708432581    0.68467723041252
H           0.20943359780287   -1.40189857131015    1.38724399317954
H          -0.73821761766823    0.28446577957964    1.52616666641956
O           0.86963738910923   -1.35888894271794   -1.48933026346740
H           1.40575959146538   -1.58283099281080   -0.71383440826643
H           0.67080322052885   -0.41248049021397   -1.37935712452783
H          -0.64266498967580   -1.89354891425124   -1.25944702878599
N           2.26785784420609    1.24854473170533    1.00482193672564
H           2.11491796889181   -0.41211275562706    1.06504435578874
H           1.72022131329504    1.46214976583083    0.17716245721690
H           1.75781848133624    1.66154930754133    1.77746863076137
H           3.15003616721876    1.74036701871055    0.92320879245495
