    26
        -50.46438032  Gyration_radius:  2.41489845249 Dipole_moment: 4.125
 S          -0.11112976168561    0.53359489510497    1.54170794936628
O          -0.27168789262454    1.41513731185651    0.38118870627309
O          -1.49029752313256    0.37154258093049    2.22666203202464
O           0.33842311439594   -0.79293048249709    1.11980731778679
O           0.81768392865017    1.12463576130984    2.49407773012293
O          -1.89193543460585   -1.37827340725605   -1.79667287522215
H          -2.55001749784999   -1.86431381189117   -2.29542397994838
O           2.34173419239364   -0.36116375688466   -0.52418360468692
H           1.70884145237100   -0.71527933893267    0.14080117453307
O          -2.76553425808861    0.53881785295795   -0.02639140458502
H          -2.14886693423267    0.34095473182374    1.48048569883285
H          -2.05170525491169    1.18085109260864   -0.15910419511247
H          -2.57596423218548   -0.18013455610845   -0.66047003477356
O          -0.86856492530537   -2.89297702062329    0.11264925046869
H          -0.47322827669845   -2.13718181408640    0.60266945134280
H          -1.53084647019508   -2.00276990470460   -1.12048541507740
H          -0.14221313767555   -3.49341168051217   -0.06471088033096
O           0.30955182439436    0.39953518222711   -2.02815814148299
H           0.04427300498913    0.85977982845786   -1.20753446001504
H           1.75702826044184   -0.16664159642184   -1.29708238328763
H          -0.39000050073029   -0.25123787773814   -2.17893086228959
N           2.42320140266061    1.92659363262125    0.65050839763777
H           3.31198894848735    2.36036956222778    0.87940846736700
H           2.53023951963632    0.97465168574871    0.10147082827953
H           1.84943716636652    1.66595712180013    1.52844112046232
H           1.82958927515626    2.54389400797902    0.09927010232583
