    26
        -50.47163217  Gyration_radius:  2.39568530033 Dipole_moment: 7.824
 S           1.18937071392251   -0.50858767127905    1.24980493390684
O           0.34447871639801   -1.51736872072495    0.62046766215858
O           2.52433726959785   -0.46698645703720    0.73589482954265
O           0.52355431626314    0.81049894833130    1.17667102491383
O           1.25590836492746   -0.85977438931735    2.77837284250912
H           0.33401170233979   -0.79028116248066    3.05750788348781
H           0.44420544671845    1.62045167954131   -0.18472454533113
O           0.32727418339266    2.08827671064469   -1.05492255661442
H           0.42414401813203    3.02330282535814   -0.86981547712211
O           2.32738085175855    0.21398006091614   -1.85529851614828
H           1.81069709127495    1.02429273992802   -1.75618077758769
H           2.59013343191784   -0.04333197463360   -0.95023822697695
O          -1.26799391891767    0.24970710416506    2.92830174318289
H          -1.32811162824692    0.90828292034337    3.62254733693364
H          -0.65352491716881    0.61083452259381    2.24371875876310
O           0.42085150286329   -1.60050113017514   -2.04940445015887
H           0.44665440627659   -1.82773002066733   -1.09820873915347
H           1.22310255507661   -1.03732654037568   -2.17863390946085
O          -2.20231953751497   -0.87165666528249    0.52102412207812
H          -2.32388016857460   -0.43151011647284    1.37061940628944
H          -1.30407840240032   -1.26996107396918    0.58627350190203
N          -1.44913756952357    0.15713684169291   -1.79796038504899
H          -0.70490062569610   -0.61828003988888   -2.02118603898211
H          -2.12995107233022    0.25216677668688   -2.54238017052279
H          -1.89930693881237   -0.14951931453500   -0.89176583522903
H          -0.92289979189045    1.03388413664415   -1.64048440733369
