    26
        -50.44501700  Gyration_radius:  2.49471633622 Dipole_moment: 5.211
 S           0.88686398807983    0.39274162805578    2.19649693851688
O          -0.39763294183232    0.11528731184457    2.77349748948180
O           1.89231124961120    0.98786803613780    2.99214553182122
O           1.46923357487921   -0.91834245463823    1.59810390731657
O           0.66744627858937    1.28646270187701    0.93288265536010
H          -0.28574405880495    1.27868804178267    0.58686622882097
H           0.76485448550605   -1.41769546565968    1.08929319477955
O          -1.66363552322636    1.40152500424150   -0.09994092601134
H          -1.94618558740584    2.31422424381321   -0.02289418389698
O          -0.33562132862239   -2.17627343043614    0.25836129030226
H          -0.39213308454168   -3.10196564968386    0.50228396301310
H          -1.18967018744791   -1.74333472914670    0.57550794842304
O          -2.33289785242655   -0.89570375545676    1.25774263456666
H          -1.80261453236096   -0.57703765800584    2.01503137855933
H          -2.42856831236567   -0.11508514416198    0.69198989383629
O           0.97955670945195   -0.96128532528620   -1.97839939202179
H           0.56596422902832   -1.49460547995329   -1.28844724496450
H           1.74407222065951   -0.51997453924097   -1.56451468402856
O           2.87975071044349    0.38247563280184   -0.48793532584600
H           2.24921086257093    0.93416690160941   -0.00679786819897
H           3.28356909597399   -0.18683406436723    0.17160966049445
N          -0.91672120159573    1.01311886389225   -2.53413174431702
H          -0.46315088694323    1.80883924252687   -2.96487430058714
H          -1.62113946176704    0.66908048597455   -3.17409667558400
H          -0.20581905953262    0.27487415904432   -2.42719269380795
H          -1.40129939589974    1.24878546243870   -1.09258767604296
