    26
        -50.46255466  Gyration_radius:  2.52204729755 Dipole_moment: 4.681
 S          -1.17143149573926   -0.67590678454829    1.72921713533566
O          -1.79615458885209    0.17759268348703    0.72899320458481
O          -0.81832315671939   -1.98185712006498    1.22622236674816
O          -0.05169712980335   -0.00717749637930    2.38806513487084
O          -2.26562139586209   -0.91457212128075    2.85510507845216
H          -2.50768845893014   -0.04220340941982    3.15315124240021
H           1.06154180923615   -0.43406224370145    1.33102184494921
O           1.72436056297515   -0.73438727808889    0.65533118807737
H           2.06768965178142   -1.55686372316305    1.01106293869108
O           0.84974693211148    1.36566913457602   -2.72309631726192
H           1.16579861181231    1.71941744875862   -1.84507170114304
H           1.45886790958261    1.70174733675731   -3.38116578490686
O          -0.34843207566187    2.38858296495126    1.22299085432098
H          -1.04607151112182    1.87248368400507    0.78808908860799
H          -0.04829413777428    1.78265396387237    1.91867599534223
O           1.76598760506888    1.98129387832440   -0.35943361664416
H           2.03180558795542    1.14878327820266    0.04806172325587
H           1.01477718684599    2.30602247007548    0.18999740768979
O          -1.91591363773272   -1.69932066834532   -1.11475650339432
H          -2.20763444501006   -0.84224861268835   -0.75729290601936
H          -1.62761083701551   -2.15222521338356   -0.29458640637778
N           0.54418693764144   -1.09048069498949   -1.76950926739720
H           1.00118711556389   -1.82035975170319   -2.30569329071359
H          -0.49142471048569   -1.33829441992734   -1.61019106787381
H           0.98942735722065   -0.99458015778794   -0.82463577621638
H           0.62092029292362   -0.15970715754774   -2.26055254536690
