    26
        -50.47257760  Gyration_radius:  2.40479626855 Dipole_moment: 4.390
 S           0.88686636503017    1.06795423800428    0.29069077108481
O          -0.27701966666771    1.32404991606605   -0.54358669008348
O           2.08444953303584    0.82655938387754   -0.48747087673254
O           1.12831629528180    2.32099464626109    1.17739765033381
O           0.62970391338993   -0.05725885567425    1.20986910128773
H          -0.82668367365970   -0.29203962788045    1.75869242438744
H           0.25549032146897    2.44701959968732    1.61155262267756
O          -1.76003003845533   -0.36830132544487    2.09731140096237
H          -1.72386497143430   -0.97199832125869    2.84100437518891
O           1.94203078312144   -1.92540589691179   -0.05144264505348
H           1.47000503726725   -1.32558690637758    0.57161381879285
H           2.64630303259681   -1.36377685871906   -0.39363445131438
O          -1.21169843061788    2.31701541645354    2.42097018393466
H          -1.08456708002952    2.38524302461462    3.36994641118403
H          -1.59709149940104    1.43643732965986    2.25080718759181
O           0.95919255459479    0.50481922198114   -2.83331090723302
H           0.22046318797482    1.09724708852178   -2.64933587808495
H           1.55720307960045    0.66576213117529   -2.06676258183068
O          -1.97473754675064   -0.65784072464477   -0.68244309834895
H          -2.19240970515408   -0.79217640229271    0.25036761716800
H          -1.46318317140652    0.18588881502932   -0.67846083262243
N           0.05863094101129   -1.79737837687229   -1.90821056176146
H          -0.10781245175411   -2.58030013726914   -2.53022835348380
H          -0.82888148098981   -1.49619681823291   -1.40540020544234
H           0.80413755292658   -2.01343192354890   -1.18532391864079
H           0.40518711902893   -0.93729862620487   -2.43461256395919
