    26
        -50.45713715  Gyration_radius:  2.48948004841 Dipole_moment: 6.029
 S           1.75925165920296   -1.16902093830395    1.23764730826320
O           0.58936481930662   -1.16473268718909    2.10334604068375
O           2.92528616237668   -1.80704714294539    1.75518394466601
O           1.32191230796180   -2.05190412321391   -0.04800205447363
O           1.96945389034167    0.16594470526327    0.67075196350267
H           0.64644553662636    0.92699514955367    1.13794592547704
H           1.95589006771194   -2.75776288073835    0.00685330788043
O          -0.18183037210305    1.40430371858865    1.40641377557900
H          -0.41152384847425    0.98055714293457    2.23708634845581
O           0.31332389202904    2.89518274794655   -0.92839015726026
H           1.08764718668046    3.45917410259052   -0.95953572855513
H           0.24214838971015    2.58330889577063   -0.01318162086905
O          -1.40338820085273   -2.24958603221505    0.88295104158132
H          -2.15912347909093   -2.00741988529950    1.42166513488060
H          -0.60550965232208   -1.91828607374292    1.37358709277035
O           1.08888032352194    0.36781067965213   -1.78891154622810
H           0.80951102923584    1.29798550589709   -1.71042704356754
H           1.56683407272391    0.19131041606403   -0.94801311306249
O          -2.16770170560097    1.43161999375330   -0.42018593720654
H          -1.55340687718390    1.41046023402036    0.34726453684663
H          -1.86295693460011    2.17397963584824   -0.95078994046756
N          -1.19684019453116   -0.85025074795942   -1.38035336970139
H          -1.59096798241961   -1.31525562436382   -2.19018434316288
H          -0.20246267396034   -0.50580185536876   -1.58601635439827
H          -1.74537884993699    0.00747924797860   -1.10892969220583
H          -1.19485857633637   -1.49904418454796   -0.54777552942028
