    26
        -50.45040417  Gyration_radius:  2.52692002017 Dipole_moment: 10.881
 S           0.69750408275434   -1.40123037203857    1.71185438020627
O           1.12205159263478   -0.08575496218288    1.17360395601328
O           1.50022073974490   -1.85082673485093    2.79734188155068
O          -0.79230272926672   -1.16127920892142    2.20554852038587
O           0.53234607149640   -2.34197040218394    0.60845690859143
H          -0.56344838220733   -1.74795660074250   -0.17382704615543
H          -0.79801050686461   -0.34948149450931    2.74552142314032
O          -1.27488751989363   -1.34415114682261   -0.79224480433034
H          -1.90177663565720   -2.05433066334207   -0.93531979337556
O          -0.29855575278451    2.25460626013902   -1.98298709745219
H          -0.51417428827184    1.99077256227376   -1.05094367072739
H          -1.03012993136167    2.79113054139565   -2.28921446627063
O           2.64865613883896   -0.25589067405753   -0.87524217372106
H           2.13060373788833   -0.29077378508689   -0.02172423381991
H           3.17810187430630    0.54209460649454   -0.81695613717742
O          -1.32619366546984    1.31161348916157    3.09718944684971
H          -1.24653693405045    1.53489019436443    2.15282249993849
H          -2.26310865610395    1.29142702874584    3.30123481745028
O          -0.94550448662117    1.18178643884025    0.34555519452028
H          -0.08757985705875    0.79335508581905    0.67864809368831
H          -1.42580239930532    0.39437244401525    0.04771701365208
N           0.52962459737727   -0.24770670012049   -2.41613227536866
H          -0.19995321681486   -0.77725390542730   -1.86765546488364
H           0.22883069902288    0.75389489621915   -2.45226801445287
H           1.44022177530502   -0.28770080319217   -1.85093681171958
H           0.65980366239795   -0.64363611371860   -3.34004214649718
