    26
        -50.46733454  Gyration_radius:  2.56512218959 Dipole_moment: 3.536
 S           0.80649005663236   -0.50843745662400    1.85202442427855
O           0.37389631606344    0.88065265917619    1.83984030974250
O           2.14332010574207   -0.71663561599961    2.32647017936235
O          -0.16706720100066   -1.26023235119657    2.88753834358335
O           0.50426474502242   -1.16182732993884    0.57907593826066
H          -0.94578110901640    1.47724591151767    0.92812924060599
H           0.30496591987591   -1.20580718475184    3.71276294821861
O          -1.65515793841492    1.52226330966680    0.25346753292446
H          -2.18316234054315    0.72687365313170    0.41629418027252
O           2.62110376997371    1.16019774377670    0.39636323715479
H           1.82676386090421    1.45166674885855    0.86811561970375
H           2.93341044613107    0.41917793286697    0.93174661711938
O          -2.12525231528879   -1.22970855797703    0.60583999867113
H          -1.14219762693610   -1.27357544789385    0.64039637602973
H          -2.42202061784837   -1.67568712389192    1.40069054084985
O           2.23391204272467    1.33430833559967   -2.26743086068623
H           2.95842132562859    0.87629258766893   -2.69559882782073
H           2.46286198367940    1.37450887046973   -1.31444778464891
O          -2.28863794415410   -1.26598239168782   -2.16740127090141
H          -2.31748625051104   -1.41307986152603   -1.20548575774637
H          -3.16268324652510   -0.96782284080900   -2.42312165562974
N          -0.14531930478811    0.30029497196521   -1.54974156383846
H          -0.78214576856720   -0.25586103718270   -2.14079365868696
H           0.65131700165371    0.73938650351662   -2.05182225989112
H          -0.72424049153821    1.00226003508946   -1.01484408136355
H           0.24042459915389   -0.33047207602145   -0.80806778363223
