    26
        -50.45891235  Gyration_radius:  2.55111054149 Dipole_moment: 7.494
 S           0.48238340221710   -1.76111389124299    1.12260016831114
O           1.28287400681116   -1.19642195587626    0.01607893556871
O           1.21916530094762   -2.54838253245482    2.04217999867671
O          -0.28881323063236   -0.65727744464864    1.73217703170552
O          -0.59610121944399   -2.67645914070762    0.42295034386650
H          -1.12627817772056   -2.09748532436630   -0.14920084906760
H           0.20571206504412    0.85443488380699    1.55552282956201
O           0.42208223446275    1.79231632897087    1.30895089116804
H           0.45247217717281    2.28491783713828    2.12949835560398
O           2.76336196387082    1.10913818860094   -0.09686462945152
H           2.11529716731589    1.55682118106776    0.46904471344816
H           2.53890997984123    0.16643010803074   -0.02153207095238
O          -2.86061214106691   -0.40311885374050    1.45390662494891
H          -3.09521901424284    0.42843778191939    1.86817866725910
H          -1.91491216863639   -0.57286488594019    1.69104176942737
O           1.90858139512271    1.58564185140658   -2.56704315928548
H           2.43627098496349    1.07220540417641   -3.17994876557211
H           2.37380415648778    1.52817286803957   -1.69369270857295
O          -2.30458059470318   -1.05253161438179   -1.02152267076301
H          -2.65440566741361   -0.76531652017366   -0.14090705473945
H          -2.94909947992636   -1.66510974693651   -1.37930483090450
N          -0.11328805488138    0.61836591522844   -1.13483374905109
H           0.46499328840794   -0.18266386335905   -0.68164589520351
H          -1.01349306535465    0.23762291383886   -1.43563241230935
H          -0.22555141317131    1.33099914151431   -0.40606334205868
H           0.47644610452031    1.01324138008773   -1.90393818161340
