    26
        -50.46751717  Gyration_radius:  2.39469114229 Dipole_moment: 8.388
 S          -0.13477185107844   -0.90134780169020   -1.37534407313290
O           0.29118491623320    0.49706550487708   -1.46387592816034
O          -1.53886960694279   -1.05416593581282   -1.66118315818926
O           0.67223190188758   -1.71655701897644   -2.41165031884551
O           0.20535322711380   -1.42520241591355   -0.03517304419931
H           0.59548343121132   -0.39298138652399    1.08450405576520
H           1.58111425566275   -1.77313679112712   -2.01671236759654
O           0.78300496018981    0.22897776972061    1.84719980121902
H           1.09398072685688   -0.32371169733130    2.56627873308859
O          -1.35975937652368    2.37984719098422   -0.81869089580757
H          -0.84059209252478    3.17701155378412   -0.94196670514562
H          -0.80752163327119    1.64430047467351   -1.19160263763616
O           2.75160407189790   -1.73007784731546   -0.86186362107122
H           2.03094692021188   -1.89862866048781   -0.23768248597012
H           2.98731401359232   -0.78658816116855   -0.72864669501261
O           2.63518165741156    0.90345049440613   -0.29408093714366
H           2.31982931797982    0.95742916096038    0.61482918756118
H           1.82071089462662    0.88049485559884   -0.83716440232654
O          -2.47750594401829   -1.24983775535096    0.72577768354266
H          -1.76736182400649   -1.83282530547411    1.01394151203327
H          -2.31793511061755   -1.18625565955981   -0.25219702914030
N          -1.71729016797134    1.14056569341118    1.48051797066209
H          -2.14064178489727    0.19177241416512    1.20082786661804
H          -1.65472051375798    1.73005859653943    0.60020453648151
H          -2.26921228041541    1.59925250877595    2.19687621977190
H          -0.74175810885521    0.94109022883838    1.79687671262936
