    26
        -50.46047175  Gyration_radius:  2.3799130869 Dipole_moment: 7.201
 S          -1.05072473111124   -1.67854835696060   -0.29134620677150
O          -1.95443652656556   -1.67099659852223    0.83490900750076
O          -1.49479306033307   -2.28976926478158   -1.50540039709777
O          -0.84135046126839   -0.12099471370032   -0.66058333426397
O           0.30716990583980   -2.11815935724747    0.09725209875582
H           1.15377382936365   -1.14598433420089    0.88949872190965
H          -1.29005067852865    0.41671126136415    0.02172543607826
O           1.72984539859061   -0.44757164641535    1.34219028200173
H           2.46727284940244   -0.92838338591351    1.72137734677129
O          -0.76360950336791   -0.20270202608423    2.67472662466389
H           0.17329521447199   -0.25428592223105    2.43920658257312
H          -1.22119620287282   -0.88610774347423    2.13135410160831
O          -0.26478547614640    2.66799013037831   -0.90249047116180
H          -0.87760624940247    2.38808878149232   -1.58707466829479
H          -0.72465961278479    2.49598364431521   -0.06266181742837
O           1.00027009944624   -1.35397412618074   -2.27783698752938
H           0.87867121009244   -1.82727240506763   -1.42335833503227
H           0.12273092684737   -1.44403004849610   -2.66818720401374
O          -1.78921313221717    1.61071702025501    1.15225651086039
H          -2.73749458332212    1.53745785226432    1.27328962484681
H          -1.38409347714994    1.04592124769479    1.87495304991205
N           1.73308295627790    0.85893009856593   -1.02330178768485
H           1.84542972047424    0.46675071571150   -0.05822164741527
H           1.40429206656362    0.04357814416578   -1.63330128155181
H           0.97394138245561    1.58857498467312   -0.99040787934963
H           2.60423811524698    1.24807607839433   -1.36856737988978
