    26
        -50.46062093  Gyration_radius:  2.43282398888 Dipole_moment: 5.486
 S           0.63484422830252   -1.56542262915861    1.23759880304455
O           1.12756639080451   -2.06383702696889   -0.04661681584510
O           0.91540200873403   -2.38566177165564    2.36410720907189
O           1.00959206409188   -0.15072033135294    1.41582461429812
O          -0.95360007207953   -1.50782664293289    1.01625345729559
H          -1.26409217290766   -0.66448497604396    1.37882266232250
H           2.35189272247252    0.00246725318283    0.39291145561118
O           2.95810812847278    0.06977960315554   -0.37303810098033
H           3.04924024872443   -0.83667883408033   -0.67786280805756
O           0.16352165528712    2.18229146219171    0.77135923077729
H           0.53706168481269    1.29164737928080    1.02082979617241
H           0.64311512228790    2.82170040100797    1.30065691357924
O          -2.12628692013898    0.94141785246344    1.40738376379880
H          -2.44481773608584    1.24655241475394    2.25818979294480
H          -1.38503069808320    1.53056815247219    1.14862980680206
O           1.16246371557238    1.50938565722260   -1.72793189120047
H           1.97829698075892    1.10169071413814   -1.35492327733196
H           0.75950327678311    1.98387636908021   -0.98254980277573
O          -2.74287221649243   -0.55331514395418   -0.88617774620640
H          -2.74607567905746   -1.38164156203264   -0.39564823819256
H          -2.72934824002642    0.13738244319902   -0.20719022808908
N          -0.19140708147140   -0.74414777751467   -1.82666728073068
H          -0.15792146620676   -1.20001553019808   -2.73277779642398
H          -1.18553194552932   -0.63017941162119   -1.52232966127707
H           0.33870955830191   -1.34001606400883   -1.10190353767861
H           0.29766645248770    0.20518798964586   -1.87695033087730
