    26
        -50.44331129  Gyration_radius:  2.69162938732 Dipole_moment: 1.310
 S          -2.54136885601685   -0.43635754329946    1.08155489591032
O          -2.54974764983667   -1.18387847227534   -0.14658486797454
O          -1.50446046675368   -0.75741125787322    2.00637650782086
O          -2.59711755356517    1.05553753541743    0.79724469210895
O          -3.92424052649854   -0.67544120603198    1.79352168949198
H          -4.56531735176068   -0.60580037915379    1.09093157813907
H          -1.80389951663302    1.37934450388221    0.11693081573099
O           1.50950133873095    1.75643770614726    0.62044288624748
H           1.65183763577613    2.38161184599955    1.33107764582119
O           2.43082517503926    0.83033018526256   -1.79027576909641
H           2.25891267735790    1.28443465998417   -0.94704074388239
H           1.68591614418434    1.03810002160273   -2.36053132016420
O           1.89319331896447   -1.70873328690465   -1.14097759655049
H           2.23980143351910   -0.81398444634297   -1.37010248384301
H           2.27962548378906   -2.31884672473511   -1.77057505849469
O          -0.77806453953564    1.68980512129273   -0.73062987096335
H          -0.66144561406329    0.85141160282822   -1.26355390629021
H           0.04651651764887    1.79492890759090   -0.19733164160681
O          -0.54445283132694   -0.64199770670539   -1.85851374946528
H           0.23626289474448   -1.13915995738798   -1.55036485058399
H          -1.30795494963608   -1.00494366942970   -1.37650589526917
N           1.32580256579456   -0.64029124076153    1.58720091831452
H           0.34183763317412   -0.75121117127475    1.82852594781351
H           1.52637463718717   -1.27535660266952    0.82068119326234
H           1.47591216769665    0.82368095190439    1.04394512520186
H           1.87575022201896   -0.93220940706737    2.38455386831841
