    26
        -50.47163241  Gyration_radius:  2.41167174721 Dipole_moment: 2.529
 S          -0.37546688713457   -1.91472278349666   -0.12486211811181
O           0.71468748997874   -2.16879586607722   -1.04021134128172
O          -0.00895688810043   -1.02065070768964    0.96209737176855
O          -1.60182807111980   -1.49211053510593   -0.78106099188074
O          -0.69885062136823   -3.30114723621538    0.58190529821357
H          -0.74534680435587   -3.90935065917075   -0.14875464582448
H          -2.24111712848695   -0.30813313270882    0.12586132633263
O          -2.50236086994094    0.39523171137818    0.76878169330410
H          -2.40641187273703   -0.01683351653883    1.63038075485366
O           1.00136671252284    1.72438137940541   -1.39086501088131
H           0.56104591925930    1.10651419135711   -2.01961135056281
H           1.66250499302527    1.17003228770173   -0.92774812274614
O          -0.14337976782087   -0.28040205419211   -2.71207011958889
H           0.36609857974363   -1.01333146016521   -2.32243217403134
H          -1.03635928886982   -0.44776740915165   -2.38642597236418
O           1.02732650949653    0.98930915792783    2.45059421804261
H           1.91193975863958    0.94652337193132    2.07227846316784
H           0.61081042369586    0.15087839748157    2.18763572973307
O           2.34244304018674   -0.14125191596391    0.04863894465661
H           1.50947879932853   -0.54775771319793    0.36238157340442
H           2.70299677174186   -0.78855590794269   -0.56203460119299
N          -0.54285432435833    2.19973829352335    0.64806742987475
H          -0.84697057028346    3.16097743907590    0.75338202477595
H           0.07346428698723    1.89720565533134    1.44416582285406
H          -1.36929256434931    1.54040948155508    0.63425498455938
H           0.03503237442388    2.06960951091994   -0.25434919701221
