    26
        -50.45865425  Gyration_radius:  2.51849128798 Dipole_moment: 7.748
 S          -1.40545881528275   -0.58446108302955    0.92021959950298
O          -1.13304373375808   -1.87578650283695    0.29991432647273
O          -2.75502305013038   -0.36081595500462    1.30836511419853
O          -0.46023105887259   -0.50360522707919    2.19973324677072
O          -0.85871174451930    0.49570669717783    0.07250822461602
H           0.72307116740311    0.24729985030577    0.43314764058994
H          -0.76936073010166   -1.26821097835634    2.71085517587564
O           1.70649676936808    0.20878056767265    0.52570004081861
H           1.85680610279462    0.17362519937961    1.47225492494777
O           1.00989812932199   -1.88348811750898   -1.29259743248680
H           0.19524997695795   -2.03387160536885   -0.76720185465924
H           1.60423087116327   -1.41576613727891   -0.69293274250223
O          -0.53011709784179    3.09939584089223   -0.13495073677790
H          -1.34333007323852    3.49041328801268   -0.45828486199302
H          -0.75692503951748    2.17233653668772    0.10375383569657
O          -0.10024688062304    0.18824362048083   -2.48459852255199
H          -0.68839846394757    0.27572055669398   -1.71075111232815
H           0.35509978916053   -0.67285469183273   -2.30535363846001
O          -1.40024446719891   -2.93831578187299    2.68629754116000
H          -0.94398711616230   -3.77984630645527    2.75809246546802
H          -1.48624865682054   -2.74952426211520    1.73130555022690
N           1.47145366607117    1.97100333779975   -1.49284487980496
H           2.17096523621400    2.44938744949935   -2.04799803161955
H           0.77868720902882    2.62563416837030   -1.05542501845400
H           0.87432348880796    1.24944900613514   -2.06268526339793
H           1.88504451176658    1.41955054960557   -0.71652359129933
