    26
        -50.45869628  Gyration_radius:  2.39031354535 Dipole_moment: 8.388
 S           0.39409906382878   -1.99535483327069   -0.31754995066915
O          -0.68362866205659   -2.58946785177137    0.44055990321619
O           0.85241082089481   -2.70026715173019   -1.47481771596731
O          -0.20324502162750   -0.59881936680850   -0.86084789454587
O           1.50404097886507   -1.54599239107278    0.54859134274600
H           1.21929103266317   -0.29447707404063    1.35010479055826
H          -1.16001014754830   -0.57193786095989   -0.67258800644658
O           1.05347160671390    0.59181408047319    1.81333932531968
H           1.68801927073212    0.62505188037225    2.53109190757373
O          -1.47149193620367   -0.69125640889965    2.07618271970572
H          -1.16988117814273   -1.51736870283382    1.62996494967432
H          -0.68152845198618   -0.13877234620437    2.15873308305381
O          -1.49859247235470    2.22727806898341   -0.90042367679717
H          -1.82614487595640    2.78493255428379   -0.19153203583489
H          -1.98405599908463    1.38920800239911   -0.81883264480943
O           2.38056982538721   -0.39021863446536   -1.61491476064099
H           2.27669640665963   -0.87730542985417   -0.76744619430048
H           1.93696552943470   -0.98444599727345   -2.23200485787696
O          -2.73180565874524   -0.12559424791108   -0.12155766483721
H          -3.28323260945391   -0.88685560059537   -0.30973811405784
H          -2.39089978256788   -0.26064679862371    0.80920321037457
N           1.16309578231659    1.73805631614303   -0.62511449903346
H           0.15775996259232    1.87500870717866   -0.88328000848688
H           1.17673501296013    1.44289387881986    0.38078625580945
H           1.57656904166571    0.91249728278898   -1.16790279402595
H           1.70479245099956    2.58203993486521   -0.78000666969717
