    26
        -50.46474568  Gyration_radius:  2.518088313 Dipole_moment: 3.782
 S           1.60355677060823   -0.54514233410986   -0.12960635024557
O           1.62509648888530    0.91932177194875   -0.18594270646087
O           1.58193759967608   -1.07967791724453    1.20364404686915
O           0.46440764928063   -1.02959586275474   -0.92773277907447
O           2.90206736456917   -1.05842412373989   -0.83349289055426
H           2.93412413113114   -0.55609193695889   -1.66923948729042
H          -0.54597193994197   -1.63718885798085    0.26252638881687
O          -1.17096335804324   -1.81689048886353    0.99958236643173
H          -0.62779667790151   -2.24862984806445    1.66328105530617
O          -1.46322562392037    0.86122178490727    1.63839474928394
H          -0.59899384399650    1.13668086202449    2.03404633423235
H          -1.45092935225829   -0.11322590362189    1.65365078474532
O           1.03744996307433    1.28104622021897    2.39030508537435
H           1.30953563085325    0.35389194107286    2.46093661234061
H           1.34425021121150    1.51339324570235    1.49810231183211
O           2.63154749939706    0.94399399076157   -2.58649718012152
H           3.39687027595244    1.52034889724953   -2.64130461667295
H           2.18545248515697    1.15411638226590   -1.73761620557733
O          -3.37483181535203   -1.02306306914777   -0.53146199925834
H          -4.01786196505648   -0.74756037231966    0.12517544673881
H          -2.71458545266350   -1.55076289499231   -0.05396030428334
N          -1.41523855293380    0.77682581990409   -0.95857161237857
H          -2.27794422448834    0.20915692204416   -1.09528808506144
H          -1.36137515642623    1.58452823397843   -1.56759692223576
H          -1.40499355062384    1.02826987880535    0.08852096615783
H          -0.59158454619201    0.12345766891326   -1.09985502892927
