    26
        -50.46312936  Gyration_radius:  2.51355883483 Dipole_moment: 4.601
 S           1.78607509227812   -0.20847628582032    1.29964065741896
O           0.48731739199490   -0.78769561672883    0.98477109465705
O           2.01064981473273    0.07212421126444    2.67973191602661
O           2.85556515791373   -1.34638954264606    0.90478798986416
O           2.06974168531506    0.90325816843933    0.38419214627156
H           0.81233991115531    1.75188198079000   -0.12832354724032
H           3.29702976378790   -1.45876275668751    1.73975316115653
O           0.01978268541486    2.21827259347888   -0.50690693619272
H           0.31826645512587    3.10126275734103   -0.72993389037858
O          -1.31390377956657    1.07869950658112    1.68567146836411
H          -1.03550327448983    1.73542144856987    1.03373638681603
H          -0.64402673977951    0.37220183688205    1.62757239521150
O          -3.40414551989263   -0.24820765792926    0.74162827125886
H          -3.89615223005925   -0.60584413554437    1.48163986661075
H          -2.70574229937906    0.33220140080487    1.13497725979882
O           2.05066155120232   -0.66365777141862   -1.69662646122413
H           2.18054941446478   -0.02174526434202   -0.96068538206194
H           2.23385829688318   -1.51717567359324   -1.29649695476476
O          -1.56080769372379   -1.74375263862688   -0.46214402518691
H          -2.33963783302265   -1.30179376805871   -0.04818120527478
H          -0.83192247193475   -1.62956054053478    0.17473085296756
N          -0.49457293581399    0.00636362771541   -2.03778569774093
H          -1.03758382238586   -0.73149407530844   -1.44790883240145
H          -0.49824360369086    0.91465056356441   -1.53581068735188
H           0.51147200626303   -0.31982034482566   -2.04773959319209
H          -0.87106702282484    0.09803800663585   -2.97429026341070
