    26
        -50.47513792  Gyration_radius:  2.42372204398 Dipole_moment: 3.740
 S           1.00969918129827   -1.11751906603962    1.13939378661026
O           2.25953894169609   -0.40303842786597    1.31122125488338
O          -0.09993407543853   -0.42560440932467    1.78855880757528
O           0.70950447765760   -1.44099050805138   -0.23940742902605
O           1.18514328273541   -2.49122363615853    1.89759412982322
H           1.66334520654482   -2.19742286533527    2.66415658782585
H          -0.42923190609744    1.08486803648735    1.11886001953510
O          -0.50387694571023    1.89788222255073    0.57483873687885
H           0.41765785188048    2.15368719781842    0.40414102227823
O           2.18900617817512    1.83590391698199    0.01260720247089
H           2.97299983985350    2.34347046728224    0.22853827462809
H           2.25956689387731    0.99070733635758    0.52912406273495
O          -2.62085683683635   -1.16411841868478    1.43814046800647
H          -3.13405572922897   -0.43407675189261    1.78811827849494
H          -1.68548191629702   -0.96401889769296    1.65371006121984
O           1.39533005403090    0.32525810098621   -2.14768986055895
H           1.82904415565444    0.97762813905439   -1.57236013459163
H           1.29688714992431   -0.46693672500984   -1.58465149117073
O          -1.83461201907012   -1.54777899427372   -1.10838744253417
H          -2.31404629676292   -1.52412938357524   -0.25627659256512
H          -0.91112680618932   -1.74633741501556   -0.85997413801049
N          -1.15679852743406    0.88453673706791   -1.77901690741329
H          -1.56549451012041   -0.08765391054902   -1.58201763979139
H          -0.16946696511991    0.72106562905955   -2.13149912105147
H          -1.71868185965524    1.41152108476296   -2.43654534225913
H          -1.04405879938040    1.38432052085731   -0.85117657397757
