    26
        -50.46928875  Gyration_radius:  2.43203208926 Dipole_moment: 3.566
 S           1.90659126513838   -0.50861677298477    0.60616255008632
O           1.46870411600967   -1.82374214121340    1.01263025651363
O           2.29292534458331   -0.43174505276922   -0.79155606354226
O           0.94743671328805    0.54226901509544    0.94529659080985
O           3.19358791892441   -0.16827156181671    1.46853946905438
H           3.70687275204691   -0.96985132356797    1.44320084484263
H           0.81018304616440    1.34852450369847   -0.50155599781194
O           0.63007634565537    1.68938624439671   -1.40686167987746
H           1.39149965776430    1.38484070068803   -1.90952755947285
O          -1.09731070902053    2.46562868724037    0.96344460407825
H          -0.78154453571729    2.91041818257806    0.17275844798352
H          -0.36788266227824    1.89828047343647    1.24954508860597
O          -2.71570656475328    0.34231497718764    0.52885828261679
H          -2.29142729432722   -0.26445011019043    1.16885314718872
H          -2.35898862539995    1.22237556907101    0.76923567442881
O          -0.97045759540002   -1.00729421367124    2.05350015710233
H          -0.25341596038042   -0.40998810577596    1.77765286107508
H          -0.55872856891452   -1.87478025004891    2.06407101371446
O           0.34105170006202   -2.07045623006659   -1.40881459602921
H           1.14990664104832   -1.52178398194413   -1.46831822036385
H           0.41891032879679   -2.42774901202751   -0.51250277369272
N          -1.38799207768132   -0.06731305392114   -1.66612855012443
H          -0.68785331241343    0.71589471930850   -1.68985442022909
H          -1.95625036879937   -0.07907484519721   -2.50576843341747
H          -0.82576985886752   -0.95817262114842   -1.58091930482660
H          -2.00441767552622    0.06335621362904   -0.78194138870219
