    26
        -50.47071329  Gyration_radius:  2.41586841841 Dipole_moment: 4.163
 S          -0.61924427838975   -1.83485466158103   -0.60108118734323
O          -1.78093538008968   -0.98241541513245   -0.79238457340231
O           0.52895054766385   -1.45542506195234   -1.38834989441212
O          -0.28665752689796   -1.97728713764672    0.81794421369352
O          -1.04690732208275   -3.27478923593348   -1.10172208540790
H          -1.90647385935635   -3.38059197956419   -0.70870711747207
H           1.31961796636238   -1.63600108457101    0.93869095936095
O           2.23435319989832   -1.32264721283685    0.74880427753375
H           2.36901852927886   -1.60097629863375   -0.16414451525737
O          -1.33832827138214    1.63296806350060   -1.30040889993851
H          -1.20696695823303    1.94654087378853   -0.39568620851589
H          -1.60061451940582    0.69553471637902   -1.22350256059213
O          -0.56700894480878    1.99251207983117    1.44962000484881
H          -1.09729328195591    1.16118476274200    1.62996201272429
H          -0.81379836232146    2.61756410709775    2.13205442234264
O           1.11324899288856    1.04628291540784   -2.09196258318795
H           0.97016687602136    0.07867688644998   -2.05988502865088
H           0.20156337920796    1.41766699866729   -2.02408205802131
O          -1.94883436289855   -0.18679112237027    1.74850070683462
H          -1.28562552526744   -0.90474908862474    1.70922202664971
H          -2.36496861008418   -0.26269548703445    0.87586763280631
N           1.84064441466374    1.26545422830083    0.38090437417899
H           2.05194004229023    0.25362456557269    0.63521759414354
H           1.61398360310511    1.26068610079326   -0.68695519410783
H           0.98978868240997    1.58463245492388    0.88278496879752
H           2.63038097938418    1.86589505242728    0.58929870239429
