    26
        -50.46207087  Gyration_radius:  2.44130208092 Dipole_moment: 5.138
 S           0.04584476879756   -1.95786363986337    0.51183947049979
O          -0.04757694398428   -2.20135132098947    1.92794334482537
O           0.76450261264048   -2.94139531312620   -0.26228250158997
O          -1.48112848687234   -2.04051327299537   -0.04435870732795
O           0.45899789070373   -0.60094774854842    0.19762121095455
H           1.12895776328746    0.46362767086002    1.17102635854206
H          -1.71437848514674   -2.94556225995666    0.13807788610541
O           1.53742512853190    1.18678028620480    1.71419838131016
H           2.35972762417015    0.83007881514497    2.05281281121306
O           0.74315300204511   -1.39526944746895   -2.40186472983708
H           0.69767992073656   -1.99108988981419   -1.61908726504529
H           1.66650571259909   -1.39995815384116   -2.66332301716811
O          -1.11904660486068    0.22807367188701    2.44323448269093
H          -0.32736302084013    0.76959638168753    2.54150391912843
H          -0.79608250519092   -0.68999225202803    2.36146978202889
O           1.35908346961214    2.76872576395515   -0.44394543390765
H           1.52611100943194    2.23373792774179    0.36517840223954
H           0.89911804055106    3.55474267834614   -0.14350515483778
O          -2.18453898644969    0.60766787568950    0.01724812632790
H          -1.83842506321995    0.64757281411495    0.94081156441787
H          -2.25656587530917   -0.34296843601523   -0.13906670779024
N          -0.28312108308376    1.05615798503937   -1.75840838400479
H           0.15164597212306    0.11420344104431   -1.92569592617434
H          -0.66234114197299    1.43440427207580   -2.62013530627040
H          -1.05290812173648    0.91047253947258   -1.02570969101668
H           0.42472339338624    1.70106962136222   -1.33558292525296
