    26
        -50.46261528  Gyration_radius:  2.63449201787 Dipole_moment: 2.832
 S          -2.11721199473394   -0.47106313066125   -1.18952665062306
O          -2.17521829540445   -1.82332216810587   -0.70103431317079
O          -2.25878586154153    0.55276025029805   -0.17437667355811
O          -0.91004536589298   -0.23038160410443   -1.99816293302838
O          -3.34812622467876   -0.28776593399567   -2.17865099155903
H          -3.43933337298873   -1.15794314617829   -2.55394902126274
H          -0.22447444248380    1.07373995278968   -1.35019157477037
O           0.19408172068652    1.78980788435982   -0.80665519530940
H          -0.53152765751196    2.38904155511800   -0.61769335966817
O          -1.80655678218430    0.00780512062952    2.35288097417544
H          -2.08787807173217    0.12360498321373    1.41473282705180
H          -2.42192875079521    0.51916896782526    2.87952663166663
O           0.55100852385101   -1.82581876757861   -0.54562566085456
H           0.07404808263825   -1.27529806839844   -1.20969823145135
H          -0.11444967472919   -2.47976107534559   -0.30434218178516
O           2.67015134658151    0.17590367572892   -1.00174061138855
H           2.22236725893749   -0.67313646532095   -1.08978897062360
H           2.01435340336853    0.84860597896198   -1.21876208609708
O           3.30184681319027    0.50014168692359    1.60540924039369
H           3.26925655893908    0.35083748854408    0.63538033166204
H           3.93650846677036    1.20140991899028    1.75310913029230
N           0.64631044922207    0.14240516433308    1.29187729506466
H           1.56880779878905    0.28582140456031    1.73672981458640
H           0.47524003101440    0.90419954931349    0.59131481562787
H           0.66674856226485   -0.74339466671518    0.72917958460016
H          -0.15519253169798    0.10263144483107    1.95005779004633
