    26
        -50.43592851  Gyration_radius:  2.42727006311 Dipole_moment: 6.396
 S           1.59254219434558   -1.81602663688052    0.03995813207337
O           1.89264524967105   -1.19141642360188   -1.22408830767957
O           2.04289212569973   -3.14146777740639    0.24303335696938
O           2.08826673324268   -0.90177881400567    1.18458603428247
O           0.03335177920554   -1.75919720663557    0.19816424474375
H          -0.22042279564279   -1.19736343158016    1.00387124933177
H           2.17303519273923    0.06731704804171    0.83595596892645
O          -0.36890633025001    1.70069075674344    0.37116580556878
H          -0.62483710231417    2.61968832670203    0.42152329899680
O          -0.46697452194183   -0.16766504938711    2.13281815298074
H           0.36622334789492   -0.20405661260151    2.60849907507774
H          -0.43641438511058    0.64914076331111    1.54708323565820
O          -2.76278571429741    0.43560504909160    0.30590382566356
H          -2.76164869388630   -0.03538216788760    1.14197383293528
H          -1.93861312696761    0.97110356652583    0.31029144292375
O           2.12065125691517    1.50156116590815    0.46250200105130
H           1.08872962004354    1.65614431410882    0.43472920658982
H           2.47409216237846    2.04555407363098    1.16774609653572
O          -2.04850344926608   -1.20124116571289   -1.68976316603110
H          -1.54948959039317   -1.85191196710398   -1.18277483286266
H          -2.52132015382859   -0.65722704861093   -1.02014519868641
N          -0.03037185009321    0.51084217274490   -1.88726259142721
H           0.10996171788758    1.09102719478355   -2.70583973103763
H           0.80655214195845   -0.09566488301250   -1.71339690630371
H          -0.19869823807473    1.10709621387962   -0.98834674766666
H          -0.85995756989700   -0.13537149103298   -1.99818745861124
