    26
        -50.46923243  Gyration_radius:  2.4100380518 Dipole_moment: 6.117
 S           0.06758300600155    0.39989172314178    1.77388204987004
O          -0.86394333289370   -0.66555868389341    1.39890455254978
O           1.42377649460563    0.13434602641490    1.38453546847554
O          -0.43055702033658    1.68826633042483    1.30526843155634
O           0.04099994663084    0.44761764410379    3.35272374974391
H          -0.88825180091627    0.47564423295818    3.55669044497166
H           0.12292339531680    1.97115471384539   -0.26278715117991
O           0.21173641304655    1.97320134405437   -1.24208893027863
H          -0.35562769575978    2.68289467324685   -1.55205350580873
O           2.38240382741230    0.12048910294417   -1.16214848341389
H           2.21380920640399    0.12571669453390   -0.20388161951752
H           1.93338164511174    0.90485417891259   -1.49436478377537
O          -2.62881634428208    1.49172857144728   -0.26075807455607
H          -1.89573953509050    1.58024673762425    0.37665480096673
H          -3.40100229495213    1.86088377619223    0.16837844738086
O           1.01894529397733   -2.11595935656782   -1.71755116799985
H           1.06128701133018   -2.52742208680580   -0.82626119514983
H           1.69910801983421   -1.40693943832297   -1.68901451550146
O           1.00396438486249   -2.56637638513662    0.93586032313660
H           0.20976855564546   -2.06161035681326    1.17809787953525
H           1.73085450191030   -1.99327413689706    1.20265971991613
N          -0.95070239207823   -0.50882276522079   -1.26456170387737
H          -0.57254177661896    0.44763875913889   -1.43196715413832
H          -1.85128409619297   -0.60762248578236   -1.72149385974293
H          -0.21114011419591   -1.24528837838127   -1.57546045232952
H          -1.07093530876829   -0.60570044515408   -0.22926327081434
