    26
        -50.44050816  Gyration_radius:  2.63651427324 Dipole_moment: 6.811
 S          -0.06114933605403   -2.52367716174049    1.25359966639448
O          -0.07562847551308   -1.80602911678100   -0.00570677980736
O           0.23505393480768   -3.90423515389906    1.19957573193846
O           0.94128512058370   -1.77880707839687    2.19786686731622
O          -1.41447304191946   -2.31176023355012    1.95654071002617
H          -1.61183756977786   -1.33368077107756    1.91877647458990
H           1.37948202555625   -1.04176562116417    1.70246053926621
O          -1.77479079240260    1.48753575964946   -0.64997925630753
H          -2.59548921391043    1.76519048632667   -1.05688840323654
O           1.64862765530795    0.08779770239690    0.50561894458956
H           1.17737444866973    0.91760330898768    0.74090119242389
H           0.98733555105458   -0.48797623605284    0.06922617028288
O           0.23482377446326    2.33427115785605    0.94516812703264
H           0.71359227111549    3.10270111483673    0.63107387384998
H          -0.50437085554296    2.18964420903676    0.32205962216904
O           2.36055019974922    0.80751768983672   -2.06401435740458
H           3.15631758696076    0.38194835264096   -2.38529616101652
H           2.30005614187860    0.59523335433378   -1.11491919452076
O          -1.70847993623563    0.24588518577579    1.76829824216483
H          -1.00371193780856    0.78016985488800    2.14653718963363
H          -1.84090330793375    0.58844380485591    0.86031424576295
N          -0.47553901942302   -0.06172169809399   -2.28686476938594
H           0.46600529272282    0.30067725962714   -2.42759718997358
H          -0.84394813583497   -0.33439142628195   -3.18863546142056
H          -0.39890943420410   -0.89711410622724   -1.71219902993084
H          -1.29127294631302    0.89653936222027   -1.32591699443720
