    26
        -50.46828161  Gyration_radius:  2.43660854524 Dipole_moment: 2.454
 S           1.71508173197997   -0.54294242751787   -0.26781770619519
O           0.66672539709500   -1.54939905531259   -0.39209156743997
O           1.60519826136379    0.49457610060982   -1.26268045521841
O           1.79547274778396   -0.04570317644657    1.09997390182661
O           3.08253882484654   -1.28770119337118   -0.54395338972919
H           3.13317425555946   -1.90791749050078    0.17584354515016
H           0.42324861733364   -0.29786278389726    2.01043506649779
O          -0.40805195210004   -0.34881682188563    2.53454518066749
H          -0.15765556113160   -0.18917246557506    3.44592520713950
O           0.94285166339523    2.45175273691593    0.56903827064642
H           1.36714531156096    1.64122211360983    0.90200350019028
H           1.15769083031714    2.45795214782673   -0.36847745556919
O          -1.54826294650892    1.55959684543068    0.94280468808394
H          -0.72166362442099    2.07607773745259    0.80633743201897
H          -1.33781897452997    0.94862333405987    1.67205705608529
O          -0.29381918827040    0.79509034870879   -3.11693920823394
H           0.46487960387008    0.75171253850420   -2.49786267742226
H           0.03897840766345    0.50798158948089   -3.96792600523604
O          -1.76612417318227   -2.27101388280603    0.90503186318408
H          -0.91869732731810   -2.45771971565859    0.48588950513192
H          -1.54456358630710   -1.69885918163885    1.65045562223851
N          -1.56286324970144   -0.21760115572748   -0.97519378698802
H          -1.63885075509655    0.56398588014014   -0.23925233932466
H          -1.43262324744582    0.18212158332933   -1.91979986111315
H          -0.69827107743044   -0.77466396448411   -0.75354701324100
H          -2.36371998931934   -0.84131966124501   -0.89479935314828
