    26
        -50.46578369  Gyration_radius:  2.4626512073 Dipole_moment: 6.016
 S          -0.69527286681013    2.00441432195051   -0.45900751205071
O           0.43852625012782    1.08935378984375   -0.64247139366054
O          -1.11994685536946    2.63605142788298   -1.66302401815249
O          -1.77616531513194    1.28784587209285    0.24259329427500
O          -0.19228811918634    3.11172010359170    0.55154413827643
H           0.18318706896566    2.64296344002662    1.30385854711437
H          -1.53129824481086   -0.02892512337813    1.04633937021775
O          -1.34049583706549   -0.89884019585472    1.50495595476810
H          -2.14677314378906   -1.12945721090972    1.96868121287799
O           1.90558066324747   -1.06523771378865   -1.19847119240880
H           1.57691076414762   -0.14857864092647   -1.21028625079322
H           2.36616335865757   -1.15725003994119   -0.33500152422485
O           2.90718807076748   -1.00052008663256    1.30264346181149
H           3.76939484925640   -0.60067659442019    1.42344931120028
H           2.25156975158600   -0.35499513973400    1.64725446260043
O          -2.03641933049754    0.00310667602399   -2.04841516336124
H          -2.17303385948510    0.48570376872579   -1.20870049844201
H          -1.68394540538337    0.68259733532649   -2.63237802980288
O           0.92697017699526    0.75056449206314    1.86803185597927
H           0.22378533953304    0.14323516412426    2.13349072070646
H           0.81016384069727    0.85639758775949    0.89243091678737
N          -0.53877082759517   -1.89279660416486   -0.89937262302099
H          -0.79405835674836   -1.69422450731750    0.09156758059106
H           0.50991142538034   -1.65694517532183   -1.04060998827965
H          -0.74725681483034   -2.85211690511696   -1.15309234088074
H          -1.09362656205412   -1.21339003194442   -1.48601031187138
