    26
        -50.46980682  Gyration_radius:  2.50338408019 Dipole_moment: 1.376
 S           0.71805170336083   -1.60164931305182   -1.08969786767341
O           1.02748877625311   -2.20703578662392    0.19074292916573
O          -0.69715031296223   -1.23470428336016   -1.14339821874712
O           1.58470681407273   -0.50312515873646   -1.45564504197126
O           0.94141327940009   -2.71769074195022   -2.19012183269906
H           0.53423419611630   -3.48843123761537   -1.80703916339335
H           1.01863628402773    0.99810873855757   -1.21273828555616
O           0.70053841205409    1.90527047121038   -0.97641609483618
H           1.19191654142714    2.51127648717315   -1.53331498028173
O           2.89812759943023   -0.51206141847234    0.99402130049591
H           2.29762143060340   -1.27091662022073    0.85558856544763
H           3.11743389495634   -0.23330699354281    0.09917461928744
O          -1.95093227609615    1.18844872875116   -1.35607465937623
H          -1.68350080889559    0.26372673653107   -1.48400218537651
H          -1.10969599482068    1.66092131293471   -1.24337187417653
O          -3.12224015393748    1.09912615885001    1.01111649870791
H          -3.11247558541448    1.99005843277748    1.36424647802950
H          -2.83719780073549    1.17416537317597    0.06318064712382
O           0.95650765664250    1.17411879543265    1.66090968290227
H           0.88355263384417    1.65375867410562    0.81797986962054
H           1.76655064620203    0.61598504893437    1.57154157292041
N          -1.03354334243133   -0.50848770136117    1.39085714039213
H          -0.21239061690189    0.15873353183473    1.58391043230382
H          -0.92030907374940   -0.88560829149374    0.41691673242984
H          -1.02917693528241   -1.27643589063502    2.05330945260513
H          -1.92816695715933    0.04575493679943    1.41832427265656
