    26
        -50.47039593  Gyration_radius:  2.41528650446 Dipole_moment: 4.712
 S          -0.88478267937691   -1.60737036920310    0.87120210695573
O          -1.71492548083600   -1.32264192493655   -0.28835027405278
O           0.47354125141502   -1.96579121010767    0.54843345821215
O          -0.96620810772446   -0.51659765016476    1.84628974345306
O          -1.52272871880793   -2.87288307524270    1.57556210577675
H          -2.43921051181433   -2.62952252753751    1.64777528927536
H          -1.82736347931767    0.70679267686643    1.14752336738164
O          -2.30174674976279    1.23085234295727    0.46153521515446
H          -2.66466541911143    0.54068416707896   -0.10843754150036
O           1.92375204508028   -0.91132312177244   -1.45936566685719
H           2.19940733530671   -0.09526751310496   -1.02071930272528
H           1.50207135118187   -1.45075988254898   -0.76479915469382
O           1.61018359965017   -0.11785577477624    2.13764667214773
H           0.63549073017301   -0.12231391984707    2.23230826611436
H           1.78005177861003   -0.98797983837912    1.75325265720699
O           2.07480108234160    1.47541047870842    0.13750016927476
H           1.90212062976695    0.89651278356118    0.93845745904949
H           2.78389889399578    2.06780946995217    0.38992444431784
O          -0.46776544836194   -0.30663061195753   -2.41675795811156
H          -0.99471784173313   -0.79924382746800   -1.75192415703021
H           0.45528414979075   -0.63456676831444   -2.29696873477174
N          -0.30329967968385    1.91910316001083   -1.11841448906494
H          -0.36792987212242    1.04708633331359   -1.77430282683761
H           0.60675614915251    1.87144956785668   -0.61887955944790
H          -0.38833311416472    2.78451061715589   -1.63907755696972
H          -1.10368190366134    1.80053640792032   -0.42941373227288
