    26
        -50.47611853  Gyration_radius:  2.40918659574 Dipole_moment: 3.949
 S           0.78793899457987   -1.11263081295542    1.13405654276890
O           0.46152291865895   -1.78439695508721   -0.13178820013518
O           2.16122985474148   -0.69973974383884    1.20691277196814
O          -0.12194252807277    0.03149352095003    1.32622049337350
O           0.48541266314569   -2.11225447613151    2.28304830644087
H          -0.41503670840803   -2.42943634139451    2.05427049198736
H           0.28722530907806    1.52438021399105    0.85214319143147
O           0.47365868648384    2.41738785898413    0.46766205678805
H           0.50791443872508    3.02516781017037    1.20752325213731
O          -1.22505198148960    1.54747237997114   -1.56746067186826
H          -0.74005308790607    2.09907190387035   -0.93210222766449
H          -1.82697159669619    0.99518801029373   -1.03285879550064
O          -2.50405691172485    0.00420196687710    0.32885744367895
H          -3.06975345632167    0.49131087909636    0.93054137459442
H          -1.60018485745309   -0.00098516979042    0.73943821412845
O           2.65729683366600    1.15229504272645   -0.64721756567402
H           2.68846998133227    0.46817076720616    0.05552539480117
H           2.09116983509156    1.85373191362035   -0.28331275425808
O          -1.76431021884878   -2.65767409436162    1.00227695456506
H          -1.08162160331021   -2.61308593638855    0.31234928450312
H          -2.34432320630849   -1.90424031774005    0.81838342957203
N           0.81802742877174   -0.06460034037059   -2.06144902069365
H          -0.03020534490512    0.57157337251680   -2.02252344183572
H           0.65530423428084   -0.85764852311055   -1.37885617047409
H           0.99280930872887   -0.41003763787360   -2.99819334090729
H           1.65553103398324    0.46528471860064   -1.66344702379267
