    26
        -50.47154821  Gyration_radius:  2.43841083361 Dipole_moment: 3.625
 S          -0.34037964269081   -2.03288590332311    1.06450740424070
O           0.07468554927028   -1.91800370131539   -0.32842582493447
O          -1.10135327880874   -3.19800387988754    1.37432067688954
O           1.01723838009987   -2.14413055847042    1.91104560424083
O          -0.92951918814915   -0.76951691505819    1.51986626870415
H           0.34698859064468    0.18586203822268    1.68770734254825
H           1.00506221932324   -3.07791861272980    2.08369884193322
O           1.12120919427631    0.80143086543909    1.72909369933463
H           1.51919636799432    0.65916956584321    2.58887086909918
O          -0.22264654824643    2.56037787174596    0.05038217537042
H          -1.08893468163711    2.11564207316057    0.07370710430151
H           0.29628164260521    2.14685369530040    0.75972107417551
O           2.21921103507048   -0.39307294391216   -0.47367951361565
H           2.09888378321934    0.06476234763393    0.37760243350254
H           1.54070090743941   -1.10316513864593   -0.45658898335769
O          -1.24824238251523   -0.46872485943763   -2.13429144849810
H          -1.86371703227393   -0.01433723281221   -1.53535195887710
H          -0.82193237594137   -1.15521336610384   -1.57957170574947
O          -2.36248550183995    0.81527352045777    0.03832075713700
H          -3.24301087377325    0.86794296013886    0.41211877551161
H          -1.85673066414592    0.18923500952314    0.61492202543147
N           0.78163958122005    1.19498093725916   -1.98626236499721
H          -0.03674633743075    0.55272958234464   -2.22123610334908
H           1.16578248738021    1.64210735320784   -2.80965185789337
H           0.42867015806729    1.89514948519240   -1.27558291231852
H           1.50014862084358    0.58345580622775   -1.48524239883069
