    26
        -50.46504017  Gyration_radius:  2.50999602286 Dipole_moment: 2.317
 S           0.17948915789573   -2.08162683363777   -0.70115742182523
O           1.22685854017361   -2.01851363777197   -1.68433494609624
O           0.67153206780052   -2.21295832632101    0.66528145400627
O          -0.76757898907646   -0.97339267039840   -0.82306382602512
O          -0.67907963977407   -3.39023383173419   -0.99811497996974
H          -0.04143180444988   -4.03475544151488   -1.29175789065896
H          -2.04825052287893   -1.28998060927170    1.11547639908624
O          -0.43928258114086    1.01974392010241    2.26869459596630
H          -0.51994629566476    1.28972033692765    3.18422148700103
O           1.84422751989578    0.16867025541731    1.00958544867524
H           1.13629530358486    0.58711124475345    1.53645233031747
H           1.59849449852267   -0.77767292789551    0.97271810185350
O          -1.65662726598512    1.57657731376707   -0.15558946310770
H          -1.28662544290067    1.56190895505873    0.74245318547753
H          -1.55496116419956    0.66919456508509   -0.47940333801020
O          -0.01450606628018    3.07061741579170   -1.59608210729381
H          -0.76098963587673    2.62039478920674   -1.12496915025486
H           0.21015404278061    3.84054077895641   -1.07189853045857
O          -1.48599809926908   -1.36072834913849    1.89232667562842
H          -0.67146539230890   -1.79877815488413    1.56144822378235
H          -0.86143071875444    0.11883648359991    2.20591411325035
N           1.20162898701834    0.70620715470281   -1.47188280493026
H           1.83877406884827    0.33051352238801   -2.16858881552923
H           0.90029961945284    1.69534623530164   -1.65384815109907
H           0.36094113448438    0.08433024467080   -1.44182812823455
H           1.61947868808837    0.59892757684514   -0.49205247155726
