    26
        -50.46949231  Gyration_radius:  2.4809647189 Dipole_moment: 2.850
 S          -0.40409281301431   -0.32520999334307    1.44604370485412
O           0.74042810635911   -0.92087225514928    0.74283492023777
O          -0.02918528838449    0.86248902511177    2.17098283954264
O          -1.48979839137955   -0.07023570147409    0.48622748576442
O          -0.93074976036054   -1.37582756831089    2.46133180331837
H          -1.31813545597351   -2.09618858740317    1.90964083043618
H          -1.24724239629949    1.55075885594298    0.08674278557218
O          -0.78443239094662    2.39745034230765   -0.09386077672176
H          -0.56233038162229    2.73727719740840    0.77853731671463
O          -2.05129514293436   -3.00311234572715    0.69870237190508
H          -2.91875595746851   -2.59706437451748    0.62764564346844
H          -1.59501274473062   -2.81463232372271   -0.14170787038273
O           2.30337063873338    2.01760693642774    1.47435863261594
H           1.47814838545389    1.59312662123869    1.78431748804934
H           2.82734664654652    2.16103990269001    2.26311302371639
O           0.64924598232982   -0.16888473278445   -3.14480387412508
H           0.02206139510661    0.21986187130594   -3.75616103693163
H           0.15367523884581   -0.84372807425619   -2.63085419592813
O          -0.65484864282305   -1.72921523132763   -1.34300670679452
H          -1.14606459772194   -1.02627851986266   -0.86011264167941
H           0.13285986510441   -1.82978932672539   -0.78165794082454
N           1.38842240987183    1.06137170433114   -0.86179570879756
H           0.58412710690568    1.71810117072303   -0.65603476785878
H           1.33679677692511    0.72625929179169   -1.84569787737914
H           2.25961885462968    1.52151678921916   -0.60120882833846
H           1.25584255622140    0.23417933460383   -0.21357662099640
