    26
        -50.46761616  Gyration_radius:  2.47100203538 Dipole_moment: 3.077
 S           1.53576695700900   -1.79811962452780    0.36209492383724
O           1.59900259874380   -1.08286760693308   -0.91703541938780
O           2.03080576598056   -3.13349311555986    0.31023422891131
O           2.51243404385903   -0.98773794842730    1.34539511252377
O           0.21417911408969   -1.62949196313447    0.96031611189938
H           0.28513590814125   -0.20420714967433    1.65942786682656
H           3.32105080114503   -1.46798828314440    1.20899469265564
O           0.29939190619578    0.71586040625611    2.03166530814735
H           0.85696836800063    0.67030441646647    2.80954437747549
O          -0.72695577485225    2.05336496919465   -1.54879527820661
H          -1.32103784828189    2.03386043470582   -0.78242477563002
H           0.18457511742054    2.05630065091550   -1.16487796920769
O          -2.03395832881274    1.44381763941043    0.86188580949119
H          -2.59715688096417    1.94045004207489    1.45669965513069
H          -1.20762846218926    1.25467937676078    1.34786577646884
O           1.55505728007956    1.54423198286229   -0.29967305779580
H           1.24300456266584    1.45250030572730    0.61454249454563
H           1.73740136029943    0.63205318038753   -0.59019104565128
O          -2.22902419217429   -1.19184767823711   -0.06881660824592
H          -1.45737245158058   -1.53482232984963    0.42082486855629
H          -2.38246620424763   -0.30259966520825    0.29162009050199
N          -0.69013409388477   -0.50534065136401   -2.09464610890290
H          -1.42256732349325   -0.87823610086758   -1.42301767569584
H          -0.82192645922251   -0.84638632823561   -3.03948591476377
H          -0.73356531970853    0.56465540344121   -2.03854274665109
H           0.24901955602843   -0.79894034263288   -1.71360471490345
