    26
        -50.44387881  Gyration_radius:  2.59345349783 Dipole_moment: 11.076
 S          -0.65479888696767   -1.31662074001006   -2.35156892840595
O          -0.18917667520744   -2.51745787609928   -1.66779225215610
O          -1.66343900604194   -1.49948002611458   -3.33589691687841
O          -1.04825766979970   -0.29557078963985   -1.31723076514749
O           0.59379034508445   -0.66492757112448   -3.06291265798638
H           1.24057625729693   -0.43167659435647   -2.37347387440068
H          -0.55724793902692    1.16467691861369   -1.19192410619110
O          -0.35227998596523    1.74818776299623    1.67881410294510
H          -0.41544943872033    2.61370281305439    2.08562564191075
O          -0.19031168230991    2.06975517701176   -0.95684759702104
H          -0.34563176912015    1.89834975409508    0.70226286069897
H          -0.61185463267431    2.68342728291693   -1.55963297880276
O           1.82476214354247    0.10601762896368    1.75995928797239
H           1.08157870116558    0.73930335882113    1.83374175262370
H           2.35939025646418    0.19595693955877    2.54924395669770
O           2.06636643878455    0.40382740025122   -1.05450695265992
H           1.49885594808217    1.18754868199036   -1.08018902651343
H           2.19561407778067    0.20165510887806   -0.11874977599206
O          -1.95823000164375   -0.50525499605558    2.34504526653838
H          -2.78779703726029   -0.41871886053098    1.87230205619631
H          -1.46816017446005    0.31770310287511    2.19086853808157
N          -0.10198350617730   -1.56236639721969    0.66212633521359
H           0.79014038820491   -1.24060573457008    1.05102865731483
H          -0.51149544729823   -0.83628750746142   -0.02265781401692
H          -0.00965523598515   -2.33160178119817   -0.05068388034781
H          -0.78530544774344   -1.70954306564846    1.41304907032294
