    26
        -50.44553253  Gyration_radius:  2.48517245362 Dipole_moment: 6.695
 S           1.64777600220432   -0.83594710375648    1.60002063754042
O           1.97872898243670   -1.55675159471493    0.39786222434534
O           2.71500827708396   -0.31826418386197    2.37400683589983
O           0.69068930213852    0.35360451818218    1.18643335849400
O           0.67475682384211   -1.65397209417537    2.44575786341905
H           0.17067837633790   -2.24518065506787    1.76468561875374
H           1.08217438287355    0.95072390020580    0.47570673196205
O           1.39624655904008    2.00161994737839   -0.64922671408751
H           1.73792164746173    2.80741119282457   -0.25798371591559
O           0.89980210744907   -0.54206170439239   -1.83621126541379
H           1.26445326411543    0.34744332133410   -1.84364926361386
H           1.38337842516635   -1.00898884232588   -1.12938048794712
O          -1.99754250001338    0.73499547224139    1.03453793785483
H          -2.49278598226444    0.37053038556800    1.77041871874072
H          -1.05465776184648    0.63619312749507    1.25537290932904
O          -1.55353918888385   -1.21515737378371   -0.91446015272642
H          -1.81439050157363   -0.48692974227096   -0.32888485318105
H          -0.73638820400589   -0.93282182827404   -1.37412506972082
O          -0.38481296572439   -2.99917737767145    0.61129572722720
H           0.42919752137117   -3.15002092638328    0.11841268402390
H          -0.93741443336926   -2.40011181954885    0.03287631819462
N          -1.12138983593452    2.26447049803364   -1.38588653480434
H          -1.64920508327612    1.95138181894277   -0.57634824194457
H          -1.27325347130449    1.58865207664700   -2.12560447577012
H          -1.50596760504807    3.15020768608359   -1.68888328760333
H           0.45053585171907    2.18815131129163   -0.95674346306722
