    26
        -50.46844397  Gyration_radius:  2.50835114903 Dipole_moment: 3.202
 S           1.55945543266932   -1.30786822897734    0.42015226085158
O           0.76099603281778   -1.71425675573960   -0.72469028840640
O           1.44526747846920   -2.15156372605152    1.57486150865027
O           3.07665663108769   -1.41494211052419   -0.07867739494196
O           1.34951093457404    0.10665228410465    0.73446249344395
H           1.12423437157518    1.33226555874639   -0.40535302136038
H           3.52711288638264   -1.71422501508532    0.70434252480901
O           0.84023835867529    1.80083041997260   -1.21941290156596
H           1.19607836111802    1.23125038349667   -1.93491462820928
O          -0.75684166660096   -0.51902217733031    2.13313215618837
H          -0.42785636143154   -1.29878425621538    2.59115576721927
H           0.04261499519991   -0.18268694382543    1.66698832823394
O          -1.78945266943261   -1.20416609661048   -0.30970967989307
H          -1.67835106786153   -1.10385179276338    0.65314240618144
H          -0.91719347979677   -1.53885596692224   -0.60746286826128
O           1.88663735932443   -0.23413546037171   -2.60562420951340
H           2.82113586802779   -0.35251684984685   -2.42400009443607
H           1.43167855755030   -0.86542408563660   -2.01118751031001
O          -2.27262891950938    1.75575348938339    1.78093364713213
H          -1.69027103317182    1.03152363984312    2.06880308083110
H          -3.11880851214936    1.60586222913068    2.20530938553817
N          -1.69997579273788    1.36373893359331   -0.86017083490056
H          -1.78422279107927    0.30121268033428   -0.77667445391520
H          -2.30933019979467    1.73064551952703   -1.58221258687946
H          -1.95214328668479    1.74059895892697    0.07385392433388
H          -0.66454147723828    1.60196537884586   -1.06704702080487
