    26
        -50.47398935  Gyration_radius:  2.39992064328 Dipole_moment: 6.564
 S           0.81203058101345   -1.11802185292161    0.82476744010622
O           1.88571762394409   -0.18962958722790    1.11875198119798
O           0.77510944169248   -1.56890719386893   -0.54681939450109
O           0.99101518993413   -2.39156171103444    1.71228067189686
O          -0.48837842967863   -0.52716166180765    1.21691122976925
H          -0.79209189971859    0.97340891507895    0.71918886428673
H           1.04679259043514   -2.02168455414667    2.61381966965283
O          -1.01702468619271    1.86781088176297    0.35005658351879
H          -1.49923195483687    2.32876220957547    1.03810088432353
O           1.66833078914663    1.86626205472272   -0.59470692418521
H           1.93342916698195    1.16917828290133    0.03593934968524
H           0.82051432387829    2.19229602823620   -0.26703320187054
O           0.94352625086016   -0.53246575720349    3.59445018306981
H           1.56413511311170   -0.14519337816113    2.95563997291929
H           0.06913196865495   -0.31276321638136    3.25382643620098
O           0.97260081448355    0.20036414647519   -2.52703828142137
H           1.05621985820277   -0.58693774307427   -1.95134242495372
H           1.39039432818409    0.91895918974312   -1.99342182679942
O          -1.92452118875229   -1.64414499033475   -0.69877620652590
H          -1.18915145637842   -2.18421597829124   -1.01490456767028
H          -1.57109084302633   -1.27743889458329    0.13987932787014
N          -1.51924926110061    0.61360149524827   -2.01813154638175
H          -2.13536867494493    0.91265384633130   -2.76501388127112
H          -0.48606315427823    0.47146442157553   -2.35855573320925
H          -1.48738223256720    1.29932086136951   -1.24367273833839
H          -1.81939426904928   -0.31395580397934   -1.59419585734019
