    26
        -50.47190956  Gyration_radius:  2.46961993536 Dipole_moment: 1.445
 S           0.45228472721665   -0.90758490382189    1.71366166723356
O           0.71206315729451   -1.63602998611818    0.48624987168020
O           0.32566083171929    0.52402853259066    1.46517045537052
O          -0.62096114131847   -1.44260241321716    2.51442677472673
O           1.77012903774424   -1.08736054506730    2.59677858006286
H           1.42316905251640   -1.21807925010167    3.47326224554262
H          -1.92471159619541   -1.07033938997939    1.54927706815658
O          -2.67790442511169   -0.93419514875739    0.93787627912497
H          -3.27143333856475   -1.67268156845680    1.08515385313475
O           2.69362912106502    0.46448784037480    0.25927972486932
H           2.91229390029533   -0.46554452056588    0.34585572805689
H           1.88560236011262    0.57743387958269    0.79275937258861
O          -0.59649377678879    2.21955344591700   -0.33391170715167
H          -0.28670061585504    1.58478747476125    0.35108749440995
H          -0.80902107629618    3.02662431995569    0.13668999334260
O           1.50884853678148    1.39724420235185   -1.96791637201758
H           0.83429984841605    1.95020258496659   -1.54114361122147
H           2.12761556733549    1.15328845309803   -1.24696618055989
O          -2.27260422302334    0.32503178405704   -1.41095548792867
H          -1.87273640059463    1.16149297661374   -1.11513916176473
H          -2.54097990313956   -0.12918038766943   -0.58788390232856
N           0.04781676629549   -0.78604968721492   -1.92500336934240
H          -0.95049912249466   -0.41786769630637   -1.83344049638051
H           0.13170861175865   -1.47916444515802   -2.65913642747125
H           0.68334648557194    0.05501295767611   -2.09368217083472
H           0.31557759524735   -1.19250850954301   -0.99235020128283
