    26
        -50.45650019  Gyration_radius:  2.44574377348 Dipole_moment: 5.633
 S          -0.48778979657062   -1.30724090617849   -1.87031435736310
O           0.10644582518657   -0.07248890216817   -2.40574337703958
O          -1.42719134703566   -1.93945615404544   -2.73017819981685
O           0.71008596844595   -2.28445424079887   -1.60294336205287
O          -1.03745291253236   -1.01672371479765   -0.52209202333120
H          -1.77356717725131    0.28242348161182   -0.08269283284609
H           1.24298318119001   -1.74665400775060   -0.98856205287932
O          -2.12156034297044    1.15840246989002    0.25798426147281
H          -3.07000127764070    1.13411476625791    0.12789599828699
O           1.95476889018970    1.93768953433125    0.78974981885450
H           2.45779141059361    1.16189841547684    0.51124221162684
H           1.37924385005092    1.61946199986446    1.50509201193906
O          -0.02968791988728    0.47266472567335    2.03974795408350
H          -0.83908541955172    0.79722261345851    1.62060425634119
H          -0.21609642909775   -0.44693516243518    2.28659645020028
O           1.83313833473587   -0.85113448755278    0.36691739302005
H           2.04189629579525   -1.60618417810194    0.92368645496984
H           1.03138828266820   -0.46404881188187    0.76692112703335
O          -0.37490145631203   -2.22799582628961    1.71081182539393
H          -0.65542224057920   -1.88891808816777    0.82839598396618
H          -0.90779127257887   -3.00572517480965    1.87617659167777
N           0.03959189931004    2.09089077118750   -1.08101842092005
H          -0.85416147360095    2.02327020606037   -0.56228286662180
H           0.04971265759969    2.89154389464171   -1.70243511764113
H           0.83966540376318    2.12887360066332   -0.39745034583173
H           0.10799706606327    1.15950315588261   -1.66610938256098
