    26
        -50.46772086  Gyration_radius:  2.38210671632 Dipole_moment: 4.831
 S          -1.74283166297120   -0.25445825354925   -0.07681489890869
O          -1.62798903178352   -0.06050977337848   -1.51393946582895
O          -1.36387782103063   -1.58614274724726    0.33919242876741
O          -1.05475400949264    0.79816349012795    0.65889980074876
O          -3.27214383788192   -0.07710647339142    0.28627441879602
H          -3.68940615603622   -0.84089310496916   -0.09986702473786
H           0.60890700742426    1.36826544547720    0.59282733564826
O           1.48478606406026    1.63162187188070    0.24865608679237
H           1.35854599739062    2.53140543712481   -0.06819335415556
O           1.16242274487156   -2.21553295770010   -0.36305802953172
H           0.22287137685977   -2.20292951836037   -0.09647998749238
H           1.65670080405156   -1.86333055333761    0.41920888930658
O           2.16786103444125   -0.83625548651309    1.66364608879202
H           1.37361017918432   -0.81893391097281    2.23827701213962
H           2.29075744947820    0.06870345249944    1.35922272496278
O          -0.62755275373956    2.60478436977688   -1.37356338080090
H          -1.23442282967914    2.43990023009620   -2.09677002789281
H          -0.95337515367895    2.06014739206871   -0.64060697090761
O          -0.31170016785818   -0.73630268900472    2.75053312278306
H          -0.69488022277285   -1.53597949945448    2.37484063170532
H          -0.63902031277528   -0.02759251760405    2.17347536842360
N           0.99526481953405   -0.07685563423594   -1.78725762702503
H           1.18217171747508   -1.03633610903431   -1.30492949455132
H           1.32967264788193    0.67133784645938   -1.13400413376227
H           1.43071979093980   -0.00296972177904   -2.69994890396527
H          -0.05233767388981   -0.00220058498200   -1.84962058930625
