    26
        -50.47723513  Gyration_radius:  2.39972642803 Dipole_moment: 3.769
 S           1.23309971966734   -1.07280925135599    0.57332340250914
O           0.76880818760362    0.08155080458089    1.35487847821025
O           0.59265278195784   -2.29679983273575    0.97810318644413
O           1.09031362144119   -0.80775890748504   -0.85408221836785
O           2.76753487768021   -1.21250934525612    0.86516263513970
H           3.10475782198309   -0.32350154703391    0.68716791009880
H          -0.40418278053881   -1.15503302906270   -1.65121378201203
O          -1.36432178843954   -1.13698322235254   -1.84511714775328
H          -1.77063662901505   -1.60214468744297   -1.09398245920513
O          -1.82882100509936    0.57076959990552    1.37125747734564
H          -2.14639264142600   -0.33917483347909    1.24735202167052
H          -0.86691249887646    0.46155403826486    1.53080379856562
O           2.80326096281518    1.53618896592422    0.79888860766842
H           3.18825450683538    1.96326380604127    1.56634642706289
H           1.95689112936530    1.12286495864312    1.09924683995714
O           1.05994905018276    1.76479989394564   -1.42699129352989
H           1.69901110181384    2.11412440822478   -0.79502555866008
H           1.16009062686683    0.78942203834190   -1.35349154355355
O          -1.98130706285940   -2.09039429421552    0.66045347757408
H          -1.00900743902346   -2.20599200423673    0.81614670375123
H          -2.39447060147667   -2.89181615770629    0.98633465153071
N          -1.55197864029105    1.37817449856719   -1.11390922379639
H          -1.58391323755574    0.41086810186157   -1.56509496199849
H          -0.55975151999913    1.71643062844617   -1.22242669390519
H          -2.21438524716302    2.01975801398454   -1.53358436003717
H          -1.74854327646034    1.20514734563727   -0.08054638470804
