    26
        -50.45554613  Gyration_radius:  2.57814521026 Dipole_moment: 5.257
 S           1.47752736916075   -1.42494581118409    1.14314177655582
O           0.09130219909830   -1.83682407783462    1.30257973809880
O           2.46167940886490   -2.26555837584585    1.74247679723397
O           1.75967737511210   -1.54338657757596   -0.45347323785232
O           1.61924893392631    0.00638331150867    1.42308825752546
H           0.13006291341425    0.56909596057362    1.62802004158894
H           2.53435020379064   -2.09191116081733   -0.40060914920825
O          -0.85592596138397    0.67562954618037    1.63906715734198
H          -1.14503797077835   -0.18840291258266    1.95487699352517
O           2.43925707261285    1.79417583574889   -0.33735291365485
H           2.22845472781670    1.11051214139154    0.33580380242890
H           2.41538967449715    2.63453087358776    0.12172402452518
O          -2.84635065524130    2.23946616668937    0.29036488143401
H          -3.31598171687086    2.98550347362201    0.66423777026436
H          -2.24641863149923    1.91615563611628    0.97699949536281
O           1.03347577213894    0.52094708191720   -2.22066732928343
H           1.33956754175680   -0.34866397889461   -1.92771301451387
H           1.57562073894395    1.14731495742893   -1.69814353133416
O          -1.42707249292249   -2.32754713165288   -0.75801642201471
H          -2.08483811565507   -2.95463246791485   -0.45486512500122
H          -0.78499361814771   -2.22564875513695   -0.01225261758286
N          -1.29612853916131    0.33040145535768   -1.01187317549875
H          -2.06754098315653    0.94469262472936   -1.26574051253691
H          -0.41959677799893    0.50651517330608   -1.58945390946616
H          -1.07582821030715    0.50655532358032    0.00088587499043
H          -1.53990025796812   -0.68035832231310   -1.09310570289318
