    26
        -50.46466400  Gyration_radius:  2.51556182308 Dipole_moment: 3.937
 S          -1.07136209037277    1.05201162580807   -0.37160913641859
O           0.30761796100394    0.90806238237722   -0.88609482743953
O          -2.03593016525805    0.58684086208645   -1.32772458785838
O          -1.16611944202280    0.32168255489475    0.90602689579943
O          -1.32487427631312    2.54947878143451   -0.09547089215354
H          -0.55253180027617    2.94062750721592    0.40726175575313
H          -1.69543801936665   -1.13268150352217    0.31302186929891
O          -1.93040273758837   -1.91479171115870   -0.23987429085541
H          -2.78063779017350   -1.67361318918905   -0.61829452651508
O           2.04431567161768   -2.63527365011919   -1.13127352019251
H           2.03544284417656   -1.97736108675933   -0.39662462939431
H           2.01821780354975   -3.50134387774188   -0.72166133113277
O           1.47597997887401   -0.81285406030147    0.74313993736707
H           1.18850605206671   -0.07629580121638    0.15608625901298
H           0.66485681906517   -1.10812392287481    1.17006523502062
O           0.63091713778897    1.21398839947290    2.64628680016967
H           1.38454974554819    0.68336440964456    2.36444054076651
H          -0.13073877526760    0.87940021223185    2.12319721063357
O           0.56376560344460    3.52166138733663    1.38970788659258
H           0.16165790490960    4.18011947828765    1.96001597910805
H           0.70633538680836    2.71592629244303    1.94946374136679
N          -0.09564347687076   -1.36097037976003   -2.10020344840894
H           0.75180482085514   -1.95500323139356   -1.92779904979056
H          -0.88267465444845   -1.67807145580335   -1.46402252121006
H           0.11940806336435   -0.36932865711141   -1.77655064842310
H          -0.38702255515193   -1.35745138592871   -3.07151070084625
