    26
        -50.46941060  Gyration_radius:  2.4612888738 Dipole_moment: 1.945
 S           1.54485461110004   -0.37087298978579    0.97626130359879
O           1.96498235285368   -1.28587349097122   -0.05807643542772
O           1.27394847922644    0.97451731646926    0.48976155372962
O           0.42203864915188   -0.89016580402133    1.74972655537461
O           2.76589341343896   -0.23012996581927    1.97194638213549
H           3.14094720716647   -1.10339815073241    1.93623718300354
H          -0.58727114537720    0.47169203831163    2.05888738827314
O          -1.12136500724316    1.28556955641136    1.99041574944479
H          -0.50214118192929    1.95726936947997    1.69414403580023
O           0.03726937697083   -1.86765484860773   -1.81471429508956
H           0.86144934415610   -1.78605780761627   -1.29293551366188
H          -0.61857648446965   -2.21666959522527   -1.19086278978981
O          -1.53446751817305   -2.08920619412005    0.46380138795598
H          -1.86553666089103   -2.80011654234439    1.01450471889651
H          -0.79497525688603   -1.67521983617971    0.96809740078995
O           1.49387251618439    2.56556305833946   -1.80504992736346
H           2.31851054050700    3.00688501910854   -2.01101174649279
H           1.62035920940291    2.13431776501275   -0.94700249333971
O          -2.71831964092715    0.39048688918813    0.01379470192458
H          -2.34391761004988    0.81899720788783    0.81343067646291
H          -2.57920373047019   -0.56063599625348    0.15536085654779
N          -0.56875041238348    0.66991716605886   -1.46102588427774
H          -1.53952295900961    0.67722114652129   -1.02351165234228
H          -0.42498870794726    1.39062751370778   -2.16476870719008
H           0.12065707059518    0.83595517326272   -0.69655206218049
H          -0.36574649493962   -0.30301801788811   -1.83085840677727
