    26
        -50.45516303  Gyration_radius:  2.48234872963 Dipole_moment: 11.117
 S          -1.75631107179471   -1.50650705706610    0.43238781394815
O          -0.87385289775217   -1.39629612433260   -0.73868137131292
O          -3.00972336852888   -2.12633270552666    0.18303406555955
O          -0.95313426791870   -2.37341471199217    1.47990219388117
O          -1.89423452227802   -0.16815357983343    1.05329982556240
H          -0.73685530384698    0.59719089171825    1.43305419961996
H          -0.05489041640276   -2.00018486415691    1.49323293349030
O           0.08486434681820    1.18226618720692    1.68720727088161
H          -0.18923007077152    1.66366013292942    2.46929695631638
O           1.74825869309627   -1.46980594964133   -0.99666230787591
H           1.94974656603422   -1.47295066745283   -0.05324447961461
H           0.77121317147680   -1.55534351164934   -1.03473293019833
O           1.46344515677789   -1.12166429995846    1.79700213379630
H           1.07905847857147   -0.21880627957465    1.79702241562315
H           1.69600231752048   -1.33510418899176    2.70236493288327
O           2.13108767134198    0.90836890215403   -1.99375916225928
H           1.99772395882660   -0.04153972516792   -1.71193554400789
H           3.04963426317706    1.11144280799871   -1.81420222682663
O          -2.13398828262329    0.69113122611523   -1.53731489671671
H          -2.70740036255888    0.69381285688142   -0.76202109177099
H          -1.68651250964167   -0.18898550594818   -1.46567796852895
N           0.01048057652107    2.05036353714690   -0.88475344055150
H          -0.87811940259759    1.53954665172956   -1.22190180905654
H          -0.06106279677177    3.04545599113972   -1.06673343428339
H           0.10444038157658    1.85198458935405    0.13444889205799
H           0.84935970178617    1.63986541690398   -1.38063299064606
