    26
        -50.47015266  Gyration_radius:  2.51742244987 Dipole_moment: 4.238
 S           1.29254795733437    1.34523448584397    0.23693641128652
O           0.15702748416665    1.07077691645118   -0.66418220547464
O           0.84766456924218    1.97254097602085    1.45193726712783
O           2.02906172216007    0.10018182959825    0.46785877948080
O           2.23263119934644    2.32714655889173   -0.51965874013354
H           2.51073236255971    1.80116575916852   -1.29308839557596
H           1.13633913575608   -1.16034723409872    0.88703205012755
O           0.50160112852904   -1.89947149772506    1.07839388385638
H           0.85800187244932   -2.36061295122520    1.83889141250344
O          -0.00187387591004   -1.33754220963198   -1.77377195941090
H           0.09204488885049   -0.40984457341491   -1.46820701014325
H           0.29210492440892   -1.88106022114762   -1.03382537251320
O           2.66247926959453    0.22048036357337   -2.10335848591471
H           2.62696273323998   -0.10238303881190   -1.18568560113784
H           1.94073752764216   -0.21696846933215   -2.56706559056439
O          -2.68995264667965   -1.38310429312585   -1.41657879144755
H          -3.13849463871259   -0.99531736647152   -2.16858921624312
H          -1.74705101627623   -1.48158086933040   -1.68062110849239
O          -1.43416667096168    1.51298144977562    2.75306265264206
H          -0.55404960563097    1.70135981711364    2.35862094670807
H          -1.74403766340550    2.34903168721322    3.10367662220871
N          -1.61253154210867   -0.24053567310677    0.75634054499771
H          -0.98012959180216   -1.00821751095806    1.06047144305988
H          -2.34477681042480   -0.62867075735063    0.13268520149892
H          -1.93263895586109    0.30607078627348    1.57254995754988
H          -1.00023376748541    0.39868602581715    0.17617530394457
