    26
        -50.46932540  Gyration_radius:  2.44106313645 Dipole_moment: 6.535
 S          -0.84026330690397   -1.28605771994170    0.89044809183538
O          -0.10346940232405   -1.54468005704033   -0.34972632409213
O          -1.48771709350396   -2.44996480421479    1.41911836885635
O           0.27671118012482   -0.81328083957271    1.92868860531083
O          -1.70324919143729   -0.11707094594527    0.74285202646381
H          -2.38851114705671   -0.14949958511390   -1.38061321049090
H           0.77492060467113   -1.65356119409074    2.03335030291153
O          -1.71778361618901   -0.33349419755038   -2.04608348650763
H          -1.08632235113697   -0.91939813735194   -1.57611910163877
O          -0.20155932152811    1.78683353208314   -2.29685712473093
H          -0.78844281104928    0.97997276331142   -2.29580665783286
H          -0.29892308484209    2.19395513432038   -3.15815779784223
O           1.81197461898696    0.21103351651836   -0.99281863261636
H           1.34689673426440    0.77384639167757   -1.62545786166575
H           1.18878589213173   -0.51412474922100   -0.78508287420737
O           1.81467477941507    1.44017942884854    1.34101751136099
H           2.07249935827324    1.01558195329364    0.48538883184864
H           1.49555979238862    0.70648795117242    1.88515618039830
O           1.01210004642443   -3.29713859605460    1.59464128148793
H           0.04015413141856   -3.37159329480227    1.62361725357063
H           1.23499262651969   -3.27343791231509    0.65903805111492
N          -0.50127133927829    2.15512999163182    0.38118515975275
H          -0.99102782806987    2.95390226056661    0.76827117778980
H           0.46707996966063    2.01798971557007    0.82984450577161
H          -1.04059302179913    1.24945610166807    0.57070059064926
H          -0.38721622909678    2.23893328278012   -0.64659485744687
