    26
        -50.47020172  Gyration_radius:  2.43837628681 Dipole_moment: 2.383
 S           1.61351076726359   -1.47288542966127   -0.05604363570865
O           2.24365810931566   -0.29423647384855    0.50035617390108
O           1.93365739571394   -1.76314965747451   -1.42421381536026
O           2.12429608030935   -2.71540736718909    0.79759648717190
O           0.15771686236693   -1.42258597638504    0.18117006352300
H           0.12798811997015   -0.50615517095988    1.55762338841732
H           2.49043292761961   -3.28648069620473    0.12996883177533
O           0.18961637292074    0.17514869154558    2.26426280699456
H           1.14073630988597    0.28943364263791    2.36355748649966
O           1.43450289624235    1.71024047832875   -1.02882163080747
H           0.93524870755508    1.18360448438125   -1.67943547879107
H           1.92084034198041    1.04648782860817   -0.49430572315522
O          -2.49050864643908   -1.20097929372338    0.73716492761767
H          -1.59335200520185   -1.47502474309852    0.48608663725172
H          -2.46314714775381   -1.05710723593582    1.68533764396657
O          -0.21591381540798   -0.17348401002372   -2.13997744494541
H          -0.12601445771281   -0.69041158118678   -1.31445314399983
H           0.30617088193255   -0.66730542963668   -2.77813501615591
O          -2.42428110594729    0.97433415292621   -0.85272609707942
H          -2.64743826624996    0.18256877108726   -0.31797816674807
H          -1.86798605340051    0.64179741908198   -1.57211310007918
N          -0.56824240907692    2.13248391605625    0.60820257979220
H          -0.75415500017451    3.06136080238222    0.96778892007873
H          -1.39604052774550    1.75470767670074    0.04753647393066
H           0.27575540540017    2.12212082280877   -0.04954122574269
H          -0.34705174336424    1.45092437876464    1.38109205765369
