    26
        -50.45460290  Gyration_radius:  2.81536075936 Dipole_moment: 4.989
 S           1.08255666977176   -2.00464688248136   -1.85501668447171
O           1.00657713304114   -3.11136845265795   -0.93389023771715
O          -0.21896810745969   -1.62603989610667   -2.39576747408315
O           1.78826511797371   -0.85139334588489   -1.29439476820035
O           1.96744918532472   -2.47505859302469   -3.09208169371218
H           1.57618498758237   -3.30741102597882   -3.34169787496729
H           1.31206943178811   -1.12116749773670    0.23041118745434
O           0.81734570238968   -1.27660724640313    1.07381399489510
H           0.74744117403344   -2.23699008448635    1.09389841658884
O           1.19759937905214    1.25009586049552    1.93673578619147
H           2.00687096363244    1.35055226295805    2.43971166488521
H           1.09590218991103    0.29552683406817    1.75826824311669
O          -1.43043206530391    2.09394878731202    2.27348625072286
H          -1.58544308317714    1.87656058466162    3.19385383759210
H          -0.49488412998125    1.89669199459772    2.09732908993049
O           0.98918218866126    1.68456633291039   -0.86435067979915
H           1.24770896790864    1.78720297600461    0.06299439236463
H           1.46905173039016    0.89896543601654   -1.19126046476854
O          -3.23956875320772    1.25630518462452    0.42126253542707
H          -3.62858744749504    2.01874383751238   -0.00940952425991
H          -2.66754424224993    1.60416916384993    1.13478827259912
N          -1.04257312529521    0.00105733578003   -0.54652522540206
H          -2.01089989674796    0.32543071827127   -0.36469638502014
H          -0.39935958156842    0.82138926393239   -0.71931418527667
H          -0.66571425504329   -0.50581782515432    0.26859367623583
H          -0.92023013392846   -0.64470571305715   -1.37674212032357
