    26
        -50.45832744  Gyration_radius:  2.48616588516 Dipole_moment: 6.964
 S           0.77706375246470    1.74863783925373    0.88573462070086
O           1.28857008617967    0.72164503680018   -0.05349369883949
O           1.76555555580961    2.69250964753589    1.27852312318516
O          -0.39942051469271    2.46291712324824    0.11325468346954
O           0.09794087753437    1.07015822658687    1.99690248853376
H          -1.16791023713906    0.54143762464990    1.23007746622313
H          -0.13098857846677    2.47299240946319   -0.83405387413318
O          -1.90657027090365    0.09335573106071    0.72951822083949
H          -2.69208374819268    0.59842200423468    0.94538364517600
O           0.42815989371687    1.81614241715019   -2.29320226493673
H          -0.26141897794176    1.14958499268599   -2.43351301066014
H           1.07062354714126    1.38352971878649   -1.70387476364424
O           0.10807089174452   -2.47489176228818   -1.95132485119972
H           0.83932871319873   -2.33846308091365   -2.55574827706428
H          -0.48382519837584   -1.70562789003445   -2.05905966321271
O          -1.47850407436669   -0.22086031420963   -1.91225769478916
H          -1.61482095056847   -0.03922678419248   -0.95335875058706
H          -2.34725464660400   -0.20939742900432   -2.31734033714007
O           1.37666057466372   -1.06775085297579    2.97124925491818
H           2.24053734625698   -0.79616271767430    3.28360117667398
H           0.89494563111119   -0.23727239896861    2.76738334698262
N           0.31675648547782   -1.57488405640882    0.57572345840903
H           0.38664044787959   -2.23075446532581   -0.22240921994705
H          -0.66650517095169   -1.39320621755142    0.79319247335341
H           0.81270965734355   -1.83587127036128    1.44366967597597
H           0.74573891774877   -0.62696355189049    0.27542275180668
