    26
        -50.46441824  Gyration_radius:  2.51566689717 Dipole_moment: 2.609
 S           0.95522878774762   -0.08065928522664    1.60983689473870
O           1.17828084539172   -0.88330726346876    0.38913264534160
O           1.78708643966768    1.08564182713857    1.62183735849190
O          -0.47762342159846    0.25600597826174    1.72018891480750
O           1.29190771839054   -0.99208282344295    2.82272209806992
H           0.63423021410588   -1.72699963523797    2.78120475444437
H          -0.53836314390505    1.55896334464020    0.78302953347040
O          -0.48061947945035    2.29070379244824    0.11530362802568
H          -0.24986961108606    3.07088559017376    0.62325313107156
O          -1.36781169615866   -1.54925191724871    0.08544006435278
H          -1.28793295825530   -0.81680184153069    0.73779177205515
H          -0.43881896090333   -1.68679822126550   -0.16201966228528
O          -0.73025523388494   -2.68843170160324    2.53841652031566
H          -1.39430554753324   -2.32423533613635    3.12858512386555
H          -1.05803190581319   -2.53262997705337    1.63231048587336
O           0.23454802394618    0.36928453350263   -3.45153439164940
H           0.28283569188741   -0.52754410634120   -3.78597138444364
H          -0.61874156548319    0.43142976377622   -2.95098641577212
O          -1.79133120688752    0.47003118670349   -1.75817466800229
H          -1.80130416455796   -0.32178686463683   -1.18696485468025
H          -1.62745697448164    1.21971386398649   -1.17436838023007
N           1.52409860093803    1.08894063394383   -1.24675303865610
H           0.82953810690744    1.72551598573976   -0.78687352473909
H           2.44800917979409    1.50706541206972   -1.24286574293918
H           1.51789783880974    0.21492724326636   -0.63054960567081
H           1.17880441222643    0.84141983697128   -2.21199124580064
