    26
        -50.46730340  Gyration_radius:  2.57268260921 Dipole_moment: 1.355
 S           0.19600174344081   -1.45942190569576    1.79352606115849
O          -0.48628454385771   -2.54377437522570    1.12175324531583
O           1.41495732136383   -1.03482834338884    1.12396440840838
O          -0.68503229867789   -0.32292246818214    2.05174380025490
O           0.62309353290073   -2.03459502652765    3.20691699719160
H           0.19206547662173   -2.88271123567886    3.20363039165598
H          -1.72148829007442    0.15969508772431    0.89042491282033
O          -2.29355699799324    0.47346771766747    0.14752475338556
H          -3.13193462939573    0.71277925045547    0.54511829075472
O           0.98394691405531    1.69650066785526    1.58807087902250
H           0.32152377871838    1.05745862696525    1.91705942713363
H           1.77623999259022    1.16332808244275    1.47199937418661
O          -1.47932346022025   -1.80525120555719   -1.23279246726732
H          -1.20017312356403   -2.25917693144526   -0.40982402147994
H          -2.03237012876726   -1.06651088340169   -0.93254463430874
O          -0.19957556804324    2.03071857165467   -0.76867850461704
H          -1.09442011060311    1.72092573858867   -0.55028857034551
H           0.26306231176086    2.10541405035669    0.10081050772419
O           1.71061951947342    1.72093136005643   -2.90452893969614
H           2.13640541160330    2.42314040895493   -3.39696485820841
H           1.06666440061611    2.14437641285421   -2.32133912253711
N           0.74681473217358   -0.41343110133662   -1.34969341926266
H           1.41481795659295   -0.39811387117536   -2.11646693976655
H          -0.09056749556852   -1.03890591008648   -1.52762301663864
H           1.17534072544265   -0.72057137021672   -0.44233449995771
H           0.39317283939719    0.57147864233206   -1.20946405490762
