    26
        -50.44860133  Gyration_radius:  2.46822828882 Dipole_moment: 4.506
 S           1.01136402725514   -1.79060712546913    0.74273525297290
O           0.07276083024419   -1.49309147403111    1.80558327616006
O           1.98150898628119   -2.78996693137944    0.98228068570034
O           0.19435408730438   -2.11459519101680   -0.53584670272858
O           1.73498446476931   -0.47599787610551    0.36543891620617
H           1.13714783795624    0.34305301030494    0.52439625588853
H          -0.78508787932616   -1.95690520363919   -0.30660367971207
O          -1.82713377150455    0.95792365345553   -0.76183145233126
H          -2.46453148950401    1.56386944286438   -1.14105901238410
O           0.30137700533690    1.58524020171111    0.75646119387706
H           0.06385416574890    1.48692850969974    1.70446012069055
H          -0.53152164757089    1.45227516896821    0.25598882425544
O          -2.12947859154061   -1.51108336813566    0.27288654518482
H          -2.20106331298440   -0.58712196700891   -0.04432148145053
H          -1.76633482131847   -1.47146319617400    1.16944229074262
O           2.09307436099694    1.65694483847482   -1.54372987143944
H           1.62884113142781    2.09846935219974   -0.82410695720181
H           2.56432043377286    0.92590889293510   -1.13230101415586
O          -0.27555781632844    0.74375873779447    3.21440526333459
H           0.32005339910175    0.77563588725767    3.96443888830851
H          -0.19507607325340   -0.15391361806433    2.83527565237705
N          -0.14141509183560    0.12171890627208   -2.55547485719790
H           0.68050879007192    0.71474602064033   -2.42359676126810
H           0.11112803881686   -0.81482876546571   -2.25730316443156
H          -1.22341900523756    0.64149573213559   -1.52375160536381
H          -0.35465805868450    0.09160638176663   -3.54386657603670
