    26
        -50.44239290  Gyration_radius:  2.47970333702 Dipole_moment: 6.823
 S           1.88545503141275   -1.12196753482138   -1.02248443159231
O           1.40861307496459    0.14580623061075   -1.49484025588988
O           3.28227205804653   -1.35302205468457   -1.03433440001241
O           1.32307740274593   -1.31417859847833    0.44416269969208
O           1.14365539509551   -2.25993826120268   -1.74726629463032
H           0.18689666400409   -1.96475204888763   -1.77947198750821
H           1.38158075911173   -0.45307548700271    0.94307225493358
O          -1.43086092253357    0.76502992593898    1.74440146202675
H          -2.00720625738556    1.36586660555709    2.21754407243483
O           1.20657748778664    0.82385581449049    1.91969416055126
H           0.21487462894406    0.85976215444941    1.92136403363238
H           1.48208331285598    0.59114419934211    2.80845485925171
O          -1.36600374882171   -1.86031204444612    0.97647521419501
H          -1.53178204334189   -0.98238367392233    1.36446771285847
H          -0.40627793508002   -1.97530538929607    1.00709533725498
O           1.29552682676817    2.63082190223307   -0.36989984387608
H           1.49198944749825    2.31992734314797    0.51949552936718
H           1.50587441621436    1.87784958236144   -0.94474440303926
O          -1.33254780244206   -1.54342474263833   -1.62381475673665
H          -1.46440819939182   -1.66792806564793   -0.64261015794584
H          -1.88790776579026   -2.19416426821195   -2.05798347839196
N          -1.31488274411876    1.48966667887916   -0.71989171567960
H          -0.50176411256692    2.11076803373581   -0.70500055200812
H          -1.04610619323201    0.68454408334570   -1.27656550671284
H          -1.44839248460622    1.06124551375925    0.74997576913716
H          -2.07033627614164    1.96416412135664   -1.19729533131957
