    26
        -50.46963686  Gyration_radius:  2.47609529773 Dipole_moment: 1.793
 S           0.12359863164115   -0.49791837855285    2.01876660554870
O          -1.31255166055534   -0.59935168829515    1.78538921442560
O           0.50224633316055    0.54690640389547    2.92540279316300
O           0.55157153954639   -1.88181543148053    2.70284482882820
O           0.85446203824002   -0.47897509570258    0.75436595338118
H           0.68189192049769    1.16471489588014    0.65787817132593
H           0.62043731425711   -1.67190199368560    3.62933493066512
O           0.44584226913142    2.11644274834796    0.61901742274263
H           0.46163362624456    2.38841483428750    1.54157915320822
O           1.48527476761640   -0.34215441397206   -1.88835781110777
H           1.50748020819232   -0.48565766497456   -0.92764366397094
H           1.60100207182587    0.62285861931767   -2.00921051617395
O          -0.98591520749872   -2.63540546655965    0.17346401871312
H          -1.24509405245031   -1.96138557953367    0.84027515287747
H          -0.07285960155864   -2.84134047311833    0.38887978769967
O           1.62780929678154    2.36733460263267   -1.83726441808310
H           1.17043632053030    2.45364188148454   -0.98241385064844
H           2.48000830948950    2.79383264657005   -1.73584761342628
O          -1.96399189834580    1.04516852578890   -0.21088842625955
H          -1.92802315463883    0.47747926523279    0.58664546333165
H          -1.25371814937644    1.69348460057356   -0.07504396855947
N          -1.08594946127712   -0.85914930512142   -1.82360508866076
H          -1.50248920045558   -0.03452150190808   -1.29709797838584
H          -1.60308279329007   -1.06384291739273   -2.67065857362465
H          -0.05772914753919   -0.64638589752084   -2.01559950149779
H          -1.10229032018508   -1.67047322620395   -1.15021207550505
