    26
        -50.45854928  Gyration_radius:  2.41983868115 Dipole_moment: 7.176
 S          -0.45732762390296    1.54977642723839    1.45514952458104
O          -0.55835696637052    0.20320302408259    2.02631955252364
O          -0.00835332842584    2.54229455745226    2.36549359392473
O           0.36056364818562    1.47304399491150    0.21710873448162
O          -1.89840089560147    1.92572359286300    0.94075283742950
H          -2.02557042457004    1.34651906377755    0.16702241730078
H           1.41643612042353    0.34065592311462    0.86749836001625
O           2.02468276765022   -0.38809939499938    1.11616863323598
H           1.85063052381555   -0.53198935668246    2.04878748525804
O           0.74939090025589   -2.24532055353861   -0.38640901180992
H           1.33959872718348   -1.74500605895891    0.21836346001452
H          -0.10912126363004   -2.28921072563118    0.06940328490317
O          -2.32111498585326    0.13254156633035   -1.04846230537354
H          -2.14469061350752   -0.63799658970992   -0.46238982687436
H          -3.27094435799610    0.16919881007844   -1.17425392054961
O           2.73681178831779    1.12898361500804   -1.36746389305984
H           2.17002681444329    1.72090526255784   -0.85564111178752
H           3.12135284160134    0.53484295675573   -0.71437055004457
O          -1.66029456143612   -1.68796741299532    0.77886164898438
H          -2.22743672023853   -2.14228414202563    1.40313770709851
H          -1.21407859492411   -0.94594175340123    1.30801721346543
N           0.40898444716975   -0.10234433930537   -1.83871787434512
H          -0.29690869678440   -0.06149149010920   -2.56472203200295
H           0.51056140772107   -1.07590608234068   -1.40461279641742
H           1.34368729274183    0.23690186873823   -2.13126929484685
H           0.15987176373108    0.54896726680319   -1.03377184610901
