    26
        -50.46501309  Gyration_radius:  2.45405528344 Dipole_moment: 4.836
 S          -1.59806542859252    0.42293085090046    1.01013339443204
O          -1.25405061506668    1.51294424922766    1.87995157061726
O          -2.97705090657480    0.02061327426006    0.93692473100022
O          -1.23939554244621    0.89198248263832   -0.47466509809426
O          -0.70096530849062   -0.73950310183403    1.24293676198614
H           0.58301145461478   -0.04090271056986    1.82785795981579
H          -0.42507862628336    1.43174290774619   -0.36766153823173
O           1.38240392797396    0.49501987827232    2.08668823752355
H           1.09595881163301    0.97329055886474    2.86871610325931
O           0.98426471101467    2.18817256366926    0.06324233745881
H           1.23763531872919    1.60207131889449    0.81809926125572
H           0.58859354390499    2.96300228975776    0.46948835241332
O           3.04739656623032   -0.80099971167193    0.28973435722055
H           3.92805923071976   -0.43479760654026    0.38489141183123
H           2.52445830870351   -0.46121046113584    1.03300908395588
O           1.48227593655551   -0.10115052248328   -1.81060541924969
H           2.12367920843177   -0.42186852405936   -1.14326970544687
H           1.29379336007215    0.81016709819655   -1.56326551796809
O          -3.05586836109809   -0.97313711733191   -1.48304565565333
H          -3.14140883630447   -0.67168433822662   -0.54329422296450
H          -3.14649463261965   -0.17050358511820   -2.00138916764954
N          -0.53724253529748   -1.72699693522413   -1.13062905410708
H          -0.32458746099949   -2.70790074385416   -1.27624882410903
H          -1.51134941240372   -1.48054932173123   -1.46214658399326
H          -0.55561886655272   -1.47609188587541   -0.09389897626267
H           0.19564614412859   -1.10464090676030   -1.56155380904768
