    26
        -50.46143071  Gyration_radius:  2.62052381908 Dipole_moment: 4.990
 S          -1.27721578443401   -1.85568973893718    1.02142013611209
O          -1.27687425642535   -2.52314821252055   -0.26284846913620
O          -0.00192242742595   -1.85363204266763    1.69944098437563
O          -1.83228580227784   -0.49778635429161    0.92273742723531
O          -2.28615576611020   -2.66899377085544    1.94333080893222
H          -2.98537641570987   -2.89444747023693    1.33728546800115
H          -0.62284484469243    0.39369460877496    1.47401754361439
O           0.23129975512583    0.85586421849646    1.68533132531328
H           0.61860293550755    0.30559610855918    2.37169617573737
O           1.32922843621379   -2.66414743001071   -0.49071254247881
H           1.33379533126349   -2.63938808507343    0.47754995177284
H           0.37683982353598   -2.80384852341431   -0.67702709987470
O          -0.08094257584382    2.92278743498136   -0.08693779536363
H           0.04594542413257    2.28248361300661    0.63581587319660
H          -0.30691963347500    3.75657396083285    0.32767428638898
O           2.11903720897601    2.32638922007778   -1.67826931309724
H           1.37659589736047    2.67627585999531   -1.15320122727082
H           2.01326880066955    2.67021661146849   -2.56614639519369
O          -1.34092378685273    0.65602248767719   -1.41726139303117
H          -1.26201796608916    1.57481690908163   -1.12979281983367
H          -1.71252396950457    0.16829406960113   -0.65178637988711
N           1.13683297108763   -0.04587161688384   -0.76976268091401
H           1.37530535368471   -1.07690987945579   -0.79867548686781
H           0.19317507769208    0.11503544507472   -1.21902740038305
H           1.01575082588683    0.23696641347939    0.22226727748066
H           1.82032539710404    0.58284615318521   -1.21711822530814
