    26
        -50.46413901  Gyration_radius:  2.43051573977 Dipole_moment: 7.383
 S           0.31062896945043   -1.71020044180867    1.32544039733934
O          -0.34143788235188   -2.84813896657031    0.72932010690313
O           1.62078645873953   -1.41899966836412    0.80159392319252
O          -0.54650344471913   -0.51733138731897    1.35753766855281
O           0.50000503969746   -2.06108412733462    2.87115294949289
H           0.88291740716254   -2.93020465353899    2.81829462713663
H           0.11348612284474    0.92862213006209    1.41915454254952
O           0.40185194394091    1.88071380063871    1.36960264911145
H           0.31398797272941    2.22927874409767    2.25744892359026
O           2.54430973170478    0.85954149129276   -0.19026884920784
H           2.36827956040509   -0.03943493147323    0.15653548752675
H           2.04576780533398    1.44421228279158    0.39485981838443
O          -2.47028322706142   -0.20150696319064   -0.35846632227448
H          -3.29669994316819   -0.54126175218642   -0.01380148406400
H          -1.78211113339064   -0.40021117738446    0.32751047023543
O           0.96376553948589    0.61986670496589   -2.26525418482758
H           1.70409491194994    0.70660921665460   -1.60535527474162
H           0.63009575717511   -0.29948984755064   -2.15743221395561
O          -0.34502741285713   -1.61006206607761   -1.62487514348363
H          -1.25031357207337   -1.28879532295724   -1.53066642679774
H          -0.19373228945214   -2.17098865239710   -0.84352137611953
N          -0.86061563363771    1.90414837179742   -1.04901823474070
H          -1.18994633996152    2.74549083621589   -1.50734363648164
H          -0.06436329588973    1.37553618221384   -1.65711801047962
H          -0.42988726447508    2.11325671018411   -0.12939919797696
H          -1.62905579158367    1.23043347725199   -0.89593118886248
