    26
        -50.46357502  Gyration_radius:  2.60064642062 Dipole_moment: 4.831
 S           0.51069431521444   -0.69467240946434    2.05089756947275
O          -0.53944584102554    0.31680400185387    2.07437691537280
O           0.09245217049864   -1.94338828819794    1.45683704324649
O           1.73955403672694   -0.16230854121984    1.46778435312989
O           0.84616606882875   -1.02575635202982    3.56572942784171
H           1.11529175373165   -0.19117319911655    3.93710547602099
H           1.27687815663887    1.21747199275381    0.66948074293390
O           0.63928906474170    1.85327985057410    0.26754417904796
H          -0.09754830788462    1.79501456235970    0.89396936076421
O           1.55487920685303   -1.77396193048017   -0.71466513074780
H           0.96121471190521   -2.11186396243498   -0.01242122374322
H           2.17234793160465   -1.22935662725157   -0.20780716229021
O          -2.45763829678386   -1.17663342901550    1.01592908044943
H          -1.93545952024575   -0.48128982622936    1.46178006013366
H          -1.88073466794146   -1.94705025686185    1.09880146940232
O           1.26649544078769    2.49286902692892   -2.46516609075102
H           1.17634549094423    2.56984029663987   -1.50551788811717
H           1.86172854446365    3.18974288070385   -2.74245975706924
O          -2.55492345822987   -0.56318650574003   -1.53793587020336
H          -3.28837571384735    0.04413958395209   -1.64208836454395
H          -2.57543181575011   -0.85587230219020   -0.58704725948850
N           0.01424033852218    0.12933887802971   -1.73110962718385
H          -0.99691593031337   -0.14936692962822   -1.78005227937053
H           0.33464608329489    0.57334639990975   -2.59105045325658
H           0.14717170205681    0.83052170351879   -0.96206263386080
H           0.61707853518525   -0.70648860740725   -1.48085192717935
