    26
        -50.44656691  Gyration_radius:  2.44589992024 Dipole_moment: 5.359
 S          -0.04715859193982   -1.47276341122969   -1.33507344426255
O          -1.08967088479998   -0.49470594100226   -1.18440481492055
O           0.83216284484315   -1.29719045072454   -2.43995259561316
O           0.79620697786511   -1.51145071022482   -0.01131243232691
O          -0.65697461409257   -2.87367101284790   -1.30425560260831
H          -1.41236722897367   -2.79196919577071   -0.62741455902532
H           1.38920072525445   -0.71353846810382    0.13143916266263
O           0.09806068632117    1.56275014917295    1.79846650069199
H           0.13067155212933    2.33738545715723    2.36132744519920
O           2.23723906903462    0.49556140711118    0.70970247950993
H           2.82791771890733    0.17678491643539    1.39553153185705
H           1.48583195058583    0.96247003992356    1.16685236337722
O          -0.83668681267876   -1.08648954806465    2.20316013137068
H          -0.71224750128244   -0.12540521411913    2.17244437118466
H          -0.11697789544817   -1.44923749711134    1.67202805700077
O           1.66393860665035    1.32730937246600   -1.99392401909466
H           1.40745127114622    0.47085782631822   -2.36501048943443
H           2.21685084884045    1.13453419878290   -1.23017738078279
O          -2.46762297855495   -2.19860460360875    0.35279541925784
H          -2.54743567878902   -1.38616178854823   -0.16553602453959
H          -2.02980818051645   -1.91684477137358    1.18558039429533
N          -0.67428633656848    2.25316530325330   -0.56760022449597
H          -1.26156257469444    3.03526974380090   -0.82747543447643
H          -1.13647167317607    1.39487244216684   -0.85960800938303
H           0.17671280721964    2.29051666747333   -1.13002966789434
H          -0.27297411728280    1.87655510867113    0.89244682244348
