    26
        -50.47421845  Gyration_radius:  2.43470690782 Dipole_moment: 4.555
 S           0.18365331291255   -0.38512581639636    1.42879476540470
O          -0.06709684281890    1.03287507429813    1.13743345547410
O           1.56426528258707   -0.62522623907350    1.77139390125220
O          -0.73267250124205   -0.74728073159884    2.65162043905404
O          -0.28580710146029   -1.22333535758665    0.33309308282368
H          -2.53073534470644   -0.28259002569372    0.31449408329747
H          -0.35361697525807   -0.21615139839460    3.37981882667343
O          -2.42290519883341    0.63752661213917    0.05799177853006
H          -1.61189227373522    0.92624835654952    0.53584497328352
O          -0.47625878963167   -1.91037291006136   -2.27648332897227
H           0.47152004646028   -1.97976772647428   -2.43248590977503
H          -0.56278856110089   -1.89675915454856   -1.30653581159806
O           2.05733174699598   -1.04570026721947   -0.99237663971068
H           2.79386023923396   -1.06590898325662   -0.37629918526588
H           1.27567091477643   -1.21073348773023   -0.43270632752086
O           0.90911608616619    0.97107527094358    3.81207253134680
H           1.50052537015972    0.43554336152068    3.25572575825019
H           0.65682496847269    1.71884282427612    3.26151332366479
O           1.07306007733587    1.47900035553629   -1.23568407064750
H           1.61809835330653    0.66888842605967   -1.28974575215239
H           0.73681875998230    1.49090409030506   -0.31549150879385
N          -1.17681522413015    0.65776108400510   -2.29014514736239
H          -1.58418873703874    1.12636331455111   -3.09106350502847
H          -1.81026925559612    0.69925621823682   -1.44238242815918
H          -0.97427160277648   -0.35965722955184   -2.47629641966277
H          -0.25142676006247    1.10432435917987   -1.98210085440221
