    26
        -50.45421491  Gyration_radius:  2.37566048444 Dipole_moment: 8.374
 S           1.08590507137266   -0.16452519371922    1.64600345036325
O           1.42941071333397   -1.55976315237427    1.50235055742572
O           1.93480504079267    0.63777100110298    2.47046505579184
O           1.25793031716200    0.44525074742707    0.14625181920893
O          -0.34292220038145    0.03876841667019    1.90066709749192
H          -1.56953838400589   -0.11369954898881    0.94310577579672
H           2.16868146050345    0.27603950619823   -0.07495903103496
O          -2.32479125691562   -0.12093294641815    0.28978506799074
H          -3.11836015114926    0.01792079098127    0.80933507087090
O           1.42258726709023   -2.07841506098570   -1.17425440042110
H           1.68191215065289   -1.92900100749118   -0.24778660144741
H           0.59010623579841   -2.56959392648150   -1.06854267275963
O          -0.82614002183615   -2.65369382884053    0.23685916771627
H          -0.16816024757281   -2.36064177541380    0.88795710776143
H          -1.49476088283042   -1.96194172048305    0.19492528021934
O           0.58578219803095    0.01850035936350   -2.57237253725472
H           0.97562343720908   -0.70435630741465   -2.01294796394941
H           0.11048738406602   -0.43085848292971   -3.27354101152497
O           0.06353165166890    2.55061958312495    1.31512492416365
H           0.97637546633039    2.69020737437160    1.58111206138094
H          -0.14852078272063    1.67394492801182    1.70125207683852
N          -0.86485047946136    1.68126981346672   -1.05945484711328
H          -0.35256094297924    2.09502863289908   -0.23400049825569
H          -0.20275378418679    1.07578415753683   -1.62383125701751
H          -1.58632534753083    1.03899886692094   -0.65228229840511
H          -1.28345394245055    2.40731877347197   -1.63122137383574
