    26
        -50.46179379  Gyration_radius:  2.56224856548 Dipole_moment: 2.887
 S          -1.18557168691643    1.31406454758942    0.50172831840754
O          -2.26858077580489    2.22683139704039    0.24217382498691
O          -0.74142389348892    1.20243934838772    1.87643907429524
O          -1.73634239635231   -0.15829871302771    0.15670410255985
O          -0.05016881595814    1.51273612770956   -0.40011536154780
H           1.58531656270976    1.84627695819913   -0.07636291787008
H          -2.18849066791770   -0.02088338149458   -0.69535012894933
O           2.47337018792511    1.85768680040492    0.34257901465314
H           2.53711167187424    2.69544805207921    0.80365029696293
O          -0.04332042766253   -0.18652359752457   -2.43831679018732
H           0.05835048364737    0.53083257042844   -1.77946890333766
H          -0.90495068157361   -0.02851400561574   -2.83402679504064
O           0.26711836247349   -1.94235609558903   -0.44963311294056
H           0.31381538642095   -1.47346341570690   -1.31325341740890
H          -0.61170966832052   -1.71180673790158   -0.11534932718875
O          -2.76894102765705    0.99945148401105   -2.00364310204217
H          -2.61668458325097    1.67951316590555   -1.30767326583068
H          -3.69731225186181    1.06332640010409   -2.23827050826318
O           1.74013946091098   -3.01747718556273    1.77753553273840
H           1.94319308849239   -3.94192549912705    1.92302110411925
H           1.27449642686122   -2.96377414758196    0.93177879092422
N           1.34157403414066   -0.30292681624873    1.43954995456375
H           1.70212115592020   -0.94633545532655    2.14451186409616
H           1.04210482979546   -0.88345560281740    0.61921200376322
H           0.49250727926266    0.24594158983949    1.76686152351186
H           2.04227797638988    0.40319221182736    1.12571823502772
