    26
        -50.46011876  Gyration_radius:  2.34384514693 Dipole_moment: 9.055
 S           0.71581163306766    1.63316959496052   -0.61519440184546
O           1.82885248565335    1.73413447952769    0.31772138448487
O           0.86506286986856    2.30432199379664   -1.86670591906026
O           0.58437886079297    0.06621927803557   -0.93760598095726
O          -0.56810274881752    1.92919055522657    0.03917402849710
H          -1.24529700483393    1.06419604491600    1.12459850188295
H           1.50336072372329   -0.26254972339791   -1.02966836887165
O          -1.73573080827007    0.43707307856672    1.73732781693082
H          -2.41240968612797    0.96930644086271    2.15837762385638
O           3.18525719215058   -0.31052093844210   -0.66006988065959
H           3.01171107248057    0.58227817189910   -0.30384731772512
H           3.32829178301591   -0.87633187281076    0.10302342796185
O           1.06218121119038   -0.25637989934334    1.89900762214807
H           1.39512713433521    0.51769125540853    1.39502413769268
H           0.17850204553208   -0.00680319124247    2.19449229985677
O           0.39959936378633   -2.39743434269548    0.47420667568481
H           0.35007559464480   -3.09171119430468    1.13311028375533
H           0.74785395269221   -1.59710607590284    0.94418996868343
O          -1.72386774350012    0.89943120939022   -2.07047491366222
H          -1.41538961652795    1.46118272524704   -1.32717000886639
H          -1.03491813503390    1.01941991008552   -2.73068619496391
N          -1.82392432068661   -1.18732304219477   -0.40696175589226
H          -1.70355460856017   -0.47058411019389   -1.18221106997028
H          -1.98280689026450   -0.63781651415185    0.47083292516935
H          -2.59203842267653   -1.81895557230200   -0.60727227312999
H          -0.91802591763597   -1.70409827094329   -0.25321860100236
