    26
        -50.44840771  Gyration_radius:  2.46536431058 Dipole_moment: 5.052
 S          -1.83566784915993    1.27631376469454    0.19846048259007
O          -1.54401857537193    0.07826497695152    0.95983716305753
O          -3.07881681297456    1.90254425433496    0.44986096197151
O          -0.69890585845761    2.28661750646719    0.41658098450748
O          -1.70707269357768    0.90376639014026   -1.30861455742672
H          -1.41134738485835   -0.04842572093907   -1.41153551369989
H           0.18716832216147    1.91906491945741    0.02501261437570
O          -0.91581469886873   -1.52360602039260   -1.74623515261945
H          -1.67855578549074   -2.08052162700671   -1.90904120615835
O           0.76886017465416    0.32725026463018   -2.90855475834138
H           0.09130663646364    0.94562164950112   -3.19271268478933
H           0.30381366517224   -0.48994071935683   -2.67438726230025
O           2.22882030140097   -0.41533188063354    1.37848680140585
H           1.55929902058623   -0.01668305423756    1.98736717807573
H           3.08877829512484   -0.20757296161530    1.74687450168098
O           0.29822581440340    0.81037477054471    2.73555287135001
H          -0.45741024970512    0.49003360291888    2.20252795954900
H           0.31548313252089    1.76124215808305    2.59972765173038
O           1.43274519623660    1.34786665083373   -0.51686690268623
H           1.76701368365292    0.62881121152028    0.05823193649452
H           1.29786799661178    0.96977797423775   -1.41423976647069
N           0.05836313213619   -2.25476838290786    0.53516255212055
H           0.99763672083578   -1.90800827489229    0.70206788959027
H          -0.00658139193943   -3.19002740791398    0.91477011417139
H          -0.57585042370268   -1.64953259125569    1.05082848760339
H          -0.48534034855449   -1.86313146332739   -0.87916234600170
