    26
        -50.45336006  Gyration_radius:  2.74575459304 Dipole_moment: 5.161
 S           1.91512935106413   -1.24575625534026    1.81881846990412
O           2.24761844494791   -1.18209674040112    0.40867695017361
O           2.45173514841097   -2.35123703891015    2.54427255879146
O           2.58198072798419    0.07026232104969    2.49423768419774
O           0.46832397210566   -1.02402013064919    2.00119716859951
H           0.46406206934846    0.57413448065754    1.70022674930051
H           3.27005253314028   -0.35083712393485    2.99763419703714
O           0.47754520315052    1.52002198929973    1.40796179802006
H           1.18547298084805    1.91617109307965    1.91982994584422
O          -1.94368320100560    1.65144449799118    0.17423820194640
H          -2.61492118117715    2.11394740097077    0.67691911330334
H          -1.10048511805961    1.77431418251617    0.65052960620458
O          -2.02063685545166   -1.64565240031745   -2.53069561522258
H          -1.84801737130789   -0.69727293489215   -2.70584876184376
H          -1.91121594666432   -2.10173653316500   -3.36505887439673
O          -1.26203024639665    0.98246151659403   -2.57976259801874
H          -0.30662999790069    0.98461219715279   -2.43273347304435
H          -1.64648365800812    1.41309048766330   -1.80569441750980
O           1.15734582522481    0.60883390726467   -1.11093693636754
H           1.75281683921426   -0.06671446151507   -0.70286844716954
H           1.04129575298792    1.26043125604567   -0.40035867614185
N          -0.89168425881965   -0.87347884884371   -0.22717564494390
H          -1.29036683407155   -1.59380625964890   -0.84356357025571
H          -0.11563096813203   -0.37185591005163   -0.74091963421014
H          -1.60587976945190   -0.16156467658699   -0.01845253524051
H          -0.45571345197090   -1.20369602603023    0.66952672100959
