    26
        -50.46932696  Gyration_radius:  2.43878620255 Dipole_moment: 4.444
 S          -0.37506213789210   -2.14638308924918   -0.20756826239689
O          -0.76742122573086   -2.20076449910133   -1.60302743389473
O           1.03118282675334   -1.95594739818231    0.01458895706994
O          -1.17942408495219   -1.16799056687339    0.53532096633614
O          -0.77234610706511   -3.56497797562731    0.38620170657977
H          -1.38769543823010   -3.85568399391123   -0.27775440178323
H          -0.53764760268165   -0.32748379589492    1.73293802690195
O          -0.21064297574996    0.29401086614312    2.43842270045198
H          -0.63858346152979    0.01722272448290    3.24948427850072
O           2.35014853032138   -0.00356222439260    1.25464117709192
H           2.03904052315141   -0.81135158415912    0.80147002073029
H           1.67115127220366    0.17084986225003    1.91934029330223
O          -1.98515649944019    0.84388669700370   -0.98449623466388
H          -1.86426228512037    0.02714162687408   -0.45237028163730
H          -1.40945181376587    0.71287026174470   -1.75234869285678
O           1.72817096421161    1.64522711517083   -0.70237302062863
H           1.33873520447324    1.04109986546975   -1.36104873349122
H           2.13995371435408    1.05923809874429   -0.01551474480748
O           0.27560383215841    0.02884988786923   -2.40039996243912
H          -0.06302114642808   -0.85143593245818   -2.10131192591251
H           0.68313836210620   -0.12610373547435   -3.25456795893127
N          -0.42502803639799    2.26901303894646    0.57453025738822
H           0.51796392595027    2.13378204097236    0.04337290085383
H          -1.16631159021625    1.82275204834194   -0.04983328031971
H          -0.37217230438451    1.70271092235671    1.44098939761248
H          -0.62086241610053    3.24302974895107    0.77131426094192
