    26
        -50.47039569  Gyration_radius:  2.41530222432 Dipole_moment: 4.709
 S           0.83561375556172   -0.04107991221407    1.85069579695714
O          -0.55750818697194    0.29908499833186    2.09208216585278
O           1.02950043668179   -1.33444321266759    1.24484619746429
O           1.51106607422184    1.03369975446404    1.11876255209439
O           1.52997017346357   -0.10723640818212    3.27131179268069
H           1.25839991217582    0.71119579848537    3.67230582386872
H           0.36013919623330    2.13459807669620    0.68422983156710
O          -0.52578072497427    2.54105277956282    0.54191784813290
H          -1.04017850034487    2.17064134143423    1.27064939595284
O           0.50200340768442   -0.51396799621157   -2.44646728097325
H           0.84805249614190   -0.55861159706462   -3.33853485714079
H           1.30202349785098   -0.45610017322079   -1.84404634858940
O          -0.58219952074180   -2.44012191439333   -0.60635223945784
H          -0.24114372692077   -1.97904647741106   -1.38440917166577
H           0.03350638906038   -2.22053341654225    0.11742408128186
O           2.51764257086378   -0.43504323050880   -0.80742571429829
H           2.37912337381943   -1.22517243690938   -0.26873485477018
H           2.29893962523810    0.28301600712562   -0.17825348538638
O          -2.33776509966641   -0.73020892456558    0.39239182672276
H          -1.79146049952991   -0.41863944636488    1.14529701574732
H          -1.87502064842020   -1.53808958129460    0.06536658814435
N          -1.49722169487230    0.97956851907861   -1.35045665136280
H          -2.17129565092555    1.37861125632156   -1.99361563803996
H          -0.73736914745051    0.48893952800684   -1.86236298867246
H          -1.08539672373500    1.72118937903837   -0.71029325641508
H          -1.96364074443584    0.25669728900475   -0.67632841969660
