    26
        -50.47267104  Gyration_radius:  2.48524217413 Dipole_moment: 4.095
 S           0.22563774475025   -1.57490680399628   -0.01118650077309
O          -1.11828670566237   -1.15262497630233   -0.41836420561075
O           1.25101109370594   -0.79220067503564   -0.66625878232799
O           0.33733122107553   -1.53766309467948    1.44444194379432
O           0.41632555500613   -3.05174893929804   -0.47478974792509
H          -0.29819055116694   -3.52136149350793   -0.00342614256727
H           0.21141189743491   -0.04940219103351    2.03111254232119
O           0.07592088333134    0.88910318277592    2.32683238441372
H           0.11363095002813    0.87324192843108    3.28445138905713
O           2.01696735235207    1.59487102801258    0.37936036621527
H           1.94391396627698    0.70203918271028   -0.00243016537788
H           1.53665403978920    1.54677816616061    1.21628136471922
O           0.32849410899396    2.64312202748997   -1.38834687556245
H           1.09004809211855    2.46845841493024   -0.78610300008284
H           0.44286125251992    1.99827428178428   -2.12064680066556
O           0.70870569115500    0.49403706607087   -2.93117845990503
H           1.48560889631459    0.38499389880529   -3.48232761537856
H           0.85876709504844   -0.06749121258571   -2.14205684306917
O          -1.67079141652651   -3.32792508735713    1.12799893769421
H          -1.07375029326970   -2.84732083188867    1.71921613912926
H          -2.04539211202126   -2.64812349091748    0.55219792666102
N          -1.39463013117651    1.40674968869053    0.07476876038955
H          -0.73666498018599    1.99165951990852   -0.58396742192736
H          -1.35332425579963    0.39192946583624   -0.22877915703507
H          -1.00410040120186    1.43458779813984    1.03070381270716
H          -2.34815899289422    1.75092316685585    0.05249617110566
