    26
        -50.47460327  Gyration_radius:  2.41952566438 Dipole_moment: 1.182
 S           1.89789192500958   -0.31243872372239    0.51966587940031
O           1.66000727046442   -0.83065785644888   -0.82631723450248
O           1.54792106238064    1.08127554046509    0.64804764957655
O           1.28739471567112   -1.15898674745992    1.53224260625465
O           3.45978858135314   -0.40769625698748    0.75679028065342
H           3.58414554982387   -1.34534143845509    0.85651416157824
H           0.24409379723724   -0.16632377241131    2.33912515983999
O          -0.29749041216061    0.60064525640655    2.63332772641982
H           0.29470555351723    1.34820920642414    2.49954216094608
O          -2.06472709411866   -0.96287177726392   -1.06496009833745
H          -1.51988025071250   -1.71181049018886   -0.72947406134922
H          -1.51549631191266   -0.55742373734895   -1.75744942134979
O          -0.19315884191671   -2.65108697628610   -0.19929894423085
H           0.53167908089767   -2.11934647414644   -0.57811931785366
H          -0.03733729604062   -2.58972667067693    0.74930633437933
O          -0.25040996134992    2.40971546984221   -0.80005633961521
H          -0.22518014755127    1.86659432306195   -1.60541727279215
H           0.51596814031977    2.09735157280400   -0.27657388994729
O          -0.03342324383047    0.26422578008327   -2.49560783907018
H           0.63834921752967   -0.12399623407760   -1.88261744115477
H           0.28396072200368    0.08571923227916   -3.38191996749702
N          -1.98861819451275    1.04108757723953    0.62633086585840
H          -1.39729762268799    1.72157364756960    0.05662871466344
H          -2.11582391869594    0.17407228803135    0.01423634834499
H          -1.42328239269479    0.80300976454290    1.48775742546326
H          -2.88377994800658    1.44422749671849    0.87829653432721
