    26
        -50.45902466  Gyration_radius:  2.62497158771 Dipole_moment: 4.940
 S          -0.17899340352545   -1.05290727976424    0.66022134728072
O          -0.65663818027386    0.11185935399948    1.40095157777031
O          -0.32379745053314   -2.29873686638137    1.35609610188237
O          -1.10735727112095   -1.10469288985109   -0.63990233765918
O           1.15653643064115   -0.78468857291741    0.12592676445704
H           1.38929079025828    0.75313316125346    0.56850760333214
H          -1.87078697904887   -1.70821986362555   -0.37014692406606
O           1.35057699787493    1.73858964465103    0.69343057088676
H           0.82786844149853    1.83986999147742    1.49458050218740
O           3.47816802446729    1.83031919477676   -1.08599848774938
H           2.83814901169395    2.00927493484838   -0.37990328929489
H           4.23757535343826    1.42172166634726   -0.66687974589118
O          -3.03073599668697   -0.63915024295589    2.25928488971598
H          -2.89938276645585   -0.94577579438155    3.15843573224093
H          -2.16085984111633   -0.27945754382078    1.97308723965492
O           1.82188893508001    0.08668326841315   -2.33157454834933
H           2.54761618427368    0.69550191183199   -2.07953110429973
H           1.71534028276469   -0.50987789498346   -1.56470597608772
O          -2.81455445170355   -2.62615068935784    0.47156378451635
H          -2.02902222788697   -2.97830417334823    0.92331204755860
H          -3.17656106393671   -1.96148871453295    1.09673345445733
N          -0.25515132996253    1.31377089367359   -1.42540419701416
H          -0.81350887278961    1.98463972256746   -1.94251571697276
H           0.56762044825499    0.88442128097284   -2.00119665322170
H           0.20024987774349    1.72686889846108   -0.57627332657682
H          -0.81353094295398    0.49279660258789   -1.11809929876617
