    26
        -50.47230356  Gyration_radius:  2.43447344725 Dipole_moment: 1.632
 S           0.63724785452622   -1.53537575213171    1.29339719113278
O           1.78234056354053   -1.23291942386057    0.44811971254561
O          -0.12139503824012   -2.68218778824164    0.85331644438894
O           1.21843142021674   -1.92800616985681    2.72014769641418
O          -0.17490238644956   -0.34753795371859    1.51198365644445
H           0.88280796493808    0.85838462693099    1.11012229396441
H           1.20088463726286   -2.87776036594421    2.67286492952761
O           1.49584005349837    1.56334431417901    0.80691662318861
H           2.34015332383135    1.11266575093401    0.72736830227792
O           1.16539900128439   -0.89629449759627   -2.04258742227394
H           1.77555714257037   -1.41219596521709   -2.57135325772129
H           1.44028569105530   -1.03098415676845   -1.09694353989391
O          -1.65004111881738    1.83756996444508    1.73486809730050
H          -0.92670596088565    2.46679200473806    1.80631798179564
H          -1.24462119868439    0.96836359759813    1.90919195356810
O           0.53880877170000    1.75736775166453   -1.68630763790808
H           0.96095250386477    1.84918726130061   -0.80121759229977
H           0.83631008809272    0.89020915194582   -2.01180918755210
O          -1.36947986868984   -1.47225295068176   -1.13805336203957
H          -0.57437790330297   -1.37572575789490   -1.68919464249146
H          -1.06426900752443   -1.98003584854325   -0.35811434209087
N          -1.85741098889303    1.10561750680632   -0.84487273725235
H          -1.77389833876605    0.04511568187721   -0.86651550033237
H          -2.66569570621704    1.41224617655052   -1.37405165110233
H          -1.90755487306220    1.43026578685791    0.15231395457653
H          -0.94466662683785    1.47414705463572   -1.26590794416224
