    26
        -50.46641729  Gyration_radius:  2.4830305303 Dipole_moment: 2.493
 S           1.03591276588428   -0.89622552272926   -1.39105704231147
O           0.00466258914312   -1.88845710506580   -1.14529955865406
O           0.46630462958912    0.36181962095560   -1.85108212889546
O           1.94603530570321   -0.70355154089155   -0.27829614286081
O           1.92217174931266   -1.45665250559606   -2.58007228747773
H           1.28507938120764   -1.64709623126937   -3.26203121860149
H           1.45652751484427   -1.83950122573611    1.04116900649520
O          -0.86944433926430   -0.45070711711593    2.14150088566092
H          -0.81475436089951   -0.33966892083588    3.09146909416769
O          -2.65422100436015    2.04427938746150   -0.61862842734727
H          -2.64402980928848    2.25275597422075   -1.55414070391999
H          -2.68545407333772    1.06311257331051   -0.56745023696454
O          -2.27096130457316   -0.61897005954051   -0.34916407494963
H          -2.13776160902328   -0.73268578907810    0.59928419356161
H          -1.52547528636837   -1.08331546202384   -0.77095973356816
O           2.40048065213720    1.71642935913918    0.82262316413337
H           3.27891148444951    2.01731115381769    0.58859823912292
H           2.31406932656094    0.81798982365347    0.44377299607653
O           0.71515629909725   -2.37688773169522    1.36913411923956
H          -0.27851042093169   -1.22439775341808    1.91636565087227
H           0.26247507773166   -2.61388096085646    0.54297644786866
N          -0.24160157652656    1.54440750381007    0.38151046418494
H           0.56749714258330    2.09326539954044    0.69283992982921
H          -1.11218153633427    2.07608350248123    0.17042874625319
H           0.03742474708604    1.07259943197982   -0.52552670365191
H          -0.45831333441711    0.81194418549124    1.09203530171038
