    26
        -50.47547313  Gyration_radius:  2.37914200729 Dipole_moment: 2.855
 S          -0.25079905043132   -1.44118248841595    0.23255545694087
O          -1.39292102969956   -0.54895089417227    0.37382177489810
O          -0.12902433732418   -1.97046246300424   -1.10470585761820
O           0.98551478884197   -0.77844554377040    0.67154968067049
O          -0.48070206011748   -2.64883582656359    1.20433955636037
H          -0.52102615770216   -2.23203512658337    2.07782215562318
H           2.43371555474538   -0.55561799855743   -1.18841944180206
O           1.94307411373355   -0.62431766954454   -2.01296318582075
H           1.21643177389653   -1.25237380390889   -1.80108710695934
O           0.14026842130686   -0.83153398026741    3.13984212505435
H           0.82340775607135   -1.04540227640367    3.77862740293455
H           0.59346326529240   -0.68073372748562    2.28207425611475
O          -1.28588329531899    1.51402425829306    2.08193130513194
H          -0.96040375890549    1.04823057238542    2.85922662064773
H          -1.53278697125216    0.80271610983873    1.46154235241460
O          -1.82479979437570    0.00374875939705   -2.15041588403924
H          -1.51446336619953   -0.84721323223877   -2.47892784790298
H          -1.87312436595013   -0.13539305005068   -1.17911308886519
O           0.80101884806754    1.88265965847381    0.45402253343119
H           0.02849251744725    2.01879809688264    1.04732703241728
H           1.01338627453914    0.93561510585642    0.57385806174792
N           0.35508634781769    1.50622456634599   -2.08876104448880
H           1.08069924968975    0.74958256272239   -2.22210108015867
H           0.47322086919673    2.27005292415076   -2.74454518666390
H          -0.58802190403626    1.03293797417646   -2.19578323003532
H           0.46617631063206    1.82790748238910   -1.07171736006386
