    26
        -50.46920404  Gyration_radius:  2.49081995935 Dipole_moment: 5.282
 S           1.50742818963838   -0.12574359783809    0.15181938206708
O           0.93341229540536   -0.57928546812227   -1.11823191447541
O           2.35334038263939   -1.11308542378162    0.76066680783621
O           2.36510603467724    1.15477292318610   -0.21186100117621
O           0.46604025705082    0.39801346572422    1.03389105330998
H          -0.11024257506613    1.76850497482908    0.28625258853913
H           3.09284505521727    0.78989365600312   -0.75198885088441
O          -0.56997295735956    2.44256700943158   -0.26371077404108
H           0.12876570816401    2.98550800867913   -0.63215527340754
O          -2.02754916948423    1.01286408314294    2.05626030499035
H          -2.09296763001680    1.88117535828740    1.65077923672678
H          -1.09860212254674    0.75475859986901    1.96211863417499
O          -0.38828520618294   -2.19701523299437    1.20803580771632
H          -0.01485296041124   -1.30835339846870    1.28821819476365
H           0.36812598459073   -2.78217193581951    1.13888888334253
O           3.72977850117395   -0.70847288760454   -1.50732623151026
H           2.95350232829364   -0.94854140214960   -2.02436697371904
H           3.59494635898693   -1.14174510641776   -0.64891762222990
O          -2.77984634447988   -1.06250842987979    0.51859746355537
H          -2.10734587358296   -1.71317753134910    0.78172800528126
H          -2.72407762690028   -0.36173834511505    1.20344421314445
N          -1.53771752285610    0.17616976267765   -1.40366140048673
H          -0.55035536332661   -0.22353074642249   -1.36366773489850
H          -1.93390818914203    0.08709615106045   -2.33252279599486
H          -2.12569905895346   -0.35446675798612   -0.66285102531647
H          -1.43186849558292    1.16851226125728   -1.11943899745177
