    26
        -50.46982060  Gyration_radius:  2.50071796718 Dipole_moment: 2.032
 S           0.39832673250224   -1.68733643415821   -1.22425355224251
O           0.22410391552144   -2.52578070380800   -0.06335002705945
O          -0.77738111314140   -0.84762373861439   -1.47698137284791
O           1.61290724381692   -0.89469414510975   -1.21846573098814
O           0.51077828984238   -2.67090712083542   -2.46024435804160
H           0.07987971630165   -3.44143039527203   -2.10730712615170
H           1.84973774210462    0.05344351881617    0.04840748325675
O           0.22241878939535    2.50794217318486   -0.19647162398348
H           0.35477315566955    2.25388804704624   -1.13935015208390
O           1.94641561357439    0.64648477696865    0.83839673593332
H           2.88802642347605    0.71132658523822    1.00623808017622
H           0.90828427432539    2.01682456952937    0.29043004200625
O           0.39729679129653   -1.17944038960770    2.23897663865402
H           0.31146663596012   -1.79777116535517    1.48625949341087
H           0.99384051920983   -0.48144668071629    1.92229697747704
O           0.49429004620235    1.24975517959727   -2.54450475104351
H           1.37833731984675    0.86987101726182   -2.53864036524907
H          -0.07814197105275    0.49588143236967   -2.30589942580536
O          -1.87650934954747    0.02057237741661    2.66090093165162
H          -1.05501711680842   -0.53996866919275    2.57307930570923
H          -1.72245732313763    0.59432326274100    3.41290909154954
N          -1.83549462108278    0.93492472063298    0.16581075523424
H          -1.92861323758856    0.60543270202680    1.16395823097314
H          -2.72092856785736    1.28422232269149   -0.18409467229860
H          -1.06949082239306    1.68400699923344    0.08823687026680
H          -1.50684909636946    0.13749974799682   -0.43633748856337
