    26
        -50.46284130  Gyration_radius:  2.64868004118 Dipole_moment: 3.891
 S          -0.09075306982739    0.50408470910599    2.40850612131704
O          -1.37186112240333    0.59264656470932    1.71428547198546
O           0.27446227079224    1.71152934402499    3.10016501690679
O          -0.28407228340969   -0.61496452852863    3.53454455213447
O           0.94719011786887   -0.04189223123739    1.54264796479757
H           0.85662933809469   -1.48755474297279    0.77545264640908
H          -0.55165762033352   -0.11209359297657    4.29758077250461
O           0.65205765994251   -2.25910755126871    0.19292721424088
H           0.64825174978942   -3.03040120825859    0.76038300324395
O          -0.07137494644583    2.94878469463778    0.75542854888629
H          -1.03034607796382    2.91267133374017    0.74310597841009
H           0.17618736156014    2.65216909810151    1.65049746605557
O           1.22457347729152    1.17626725249226   -0.81054125294564
H           0.90221018992519    2.04976732557454   -0.52257976155024
H           1.43041784632426    0.73533404892465    0.03663733335215
O           1.29965899063430   -1.21357173047351   -2.40356870961901
H           1.58822840537928   -0.33913239701014   -2.11373612818646
H           1.29293303794674   -1.76467673446494   -1.60948481698934
O          -1.27818830989990   -0.91817211589885   -3.28435987654974
H          -1.39015771864240   -1.00356208860560   -4.23081329475846
H          -0.32917916381272   -1.08046084745603   -3.10374971104392
N          -1.01658483973258   -0.28363700541909   -0.69894444111821
H          -0.63256425152609   -1.22899488635942   -0.53850857064287
H          -1.37603285984813    0.07323972459742    0.22887725876268
H          -0.19505077725342    0.33334066091039   -0.94390203256769
H          -1.67497741406565   -0.31161310580056   -1.48085076312163
