    26
        -50.46626226  Gyration_radius:  2.42842927026 Dipole_moment: 5.986
 S          -1.80562626156705    0.12095623410179   -0.84514664204021
O          -2.36951051732151   -0.79522416144710   -1.79026488588917
O          -1.29500335857125   -0.50059623715741    0.37572995822352
O          -0.82602041507800    1.04675080885325   -1.39737739127378
O          -3.02900164884799    1.03146414306661   -0.34067962743090
H          -3.71616213075257    0.79541663991566   -0.95503753860455
H          -0.84731742553728    2.03450905985739   -0.08514495848478
O          -0.82174503322416    2.39705109911643    0.82971640876649
H          -1.57274913598503    1.98458222271275    1.26270078924413
O           1.83405019843893    0.73757383862609   -1.30373923908826
H           1.95479161700024   -0.24088197583805   -1.20365628066768
H           0.89356267294371    0.86677160464612   -1.53904555626496
O           1.92027685215469   -1.81126139176918   -0.60846448795995
H           1.77919346096901   -1.69565307011013    0.34123946830474
H           1.11550586563945   -2.27179558481756   -0.91750518896750
O           0.80347378892225   -1.01421602019667    1.88271897025026
H           0.52575708405792   -1.66872378811294    2.52490669931266
H           0.00874712010993   -0.82423767728905    1.33136113568722
O          -0.59278948079524   -2.73620303871418   -0.98302978934555
H          -0.94161478302670   -2.04009565421987   -0.40270994690978
H          -1.10982207162499   -2.63837226745400   -1.78775158519694
N           1.64246323226942    1.46038984672234    1.15294419614636
H           0.70154634017986    1.93671692498707    1.15949231400072
H           1.83105814996330    1.20842739806342    0.09379564257635
H           2.36945374323754    2.04808483349933    1.54339673800314
H           1.54748213643493    0.56856621294186    1.66155079762943
