    26
        -50.46045169  Gyration_radius:  2.58297234313 Dipole_moment: 5.635
 S          -0.04677941311216    1.55196473075874    2.02177760605616
O           1.17059708690507    0.78193819324106    1.90070276547795
O          -0.54747067062386    2.01886025613353    0.73691800590583
O          -1.05679692984882    0.84549748826930    2.79932515220047
O           0.30429407094363    2.87279101433703    2.83798571550643
H           0.64177300555320    2.53343063924863    3.66120006197839
H          -0.95872317041919   -0.50802376120509    2.05655881207434
O          -0.88154086405051   -1.35494845006700    1.52574436164928
H          -0.97879686740513   -2.06828479268572    2.15913585278886
O          -2.09623670632651    0.19814493324345   -0.44613540605289
H          -1.94448401891823   -0.53287328103801    0.16763135167362
H          -1.67513085869283    0.97293933133479   -0.01726117160780
O           0.83887162685720   -2.25853290343379   -2.38981167340767
H           0.18265046063769   -1.54574001027697   -2.55074618471133
H           1.47143870268005   -2.20545659889434   -3.10796866863265
O           1.14011785290671    1.27850642541601   -1.12826343606499
H           0.52209742125228    1.03397542387789   -1.83530146016865
H           0.59522738093169    1.71477322181688   -0.43396571571798
O          -0.76277424163285   -0.10372622124043   -2.65712122291117
H          -1.36087957779727    0.08553272849296   -3.38080859434682
H          -1.31208790890018   -0.02164317773804   -1.82349166958605
N           1.36431642113657   -1.08634198343170   -0.01827819567376
H           1.35650276173770   -0.07647363273705   -0.39570619906067
H           0.53980993981306   -1.18275818523837    0.61512064587452
H           1.28749511705401   -1.73416970536399   -0.83043808270984
H           2.20650938935064   -1.20938167283554    0.53319733947219
