    26
        -50.45500884  Gyration_radius:  2.4141483391 Dipole_moment: 10.460
 S          -0.71126278882713   -2.11811812531133   -0.10736924581006
O           0.72321603954276   -2.06584036535619    0.17121361995336
O          -1.28011284440613   -3.41438577157531   -0.22156848111678
O          -1.41005149287516   -1.40194341462508    1.14523392798168
O          -1.02157874385785   -1.22011887236727   -1.24276595847568
H           0.32703874042210   -1.13632237611277   -2.07880687465956
H          -0.78961981168874   -0.73336701715937    1.47219321789606
O           1.29202770753210   -1.04849966742088   -2.30290435852840
H           1.69306082677298   -1.71762460847848   -1.73439235968434
O           2.20627264417092   -0.24975958297559    1.27783855385919
H           1.61573505462899    0.08736556605952    1.96303160088491
H           1.74424318408449   -1.05356760817225    0.92345033001948
O          -0.16525065042805    0.80592278978517    2.22085107633186
H          -0.78037730605895    0.98800426671022    2.93297211030857
H          -0.36943524436048    1.42695000472583    1.49418408272416
O          -0.76303089259731    2.22323485744737   -0.01546302381639
H          -1.52564268779179    1.59920501087305   -0.23883488610568
H          -1.08498217603556    3.10475461123022   -0.20865865557567
O          -2.68213222983138    0.57214647394833   -0.48866781774471
H          -3.05426307875971    0.14635356272239    0.28828117034259
H          -2.12558322093795   -0.14123751774417   -0.90583730802045
N           1.63753779297906    1.10245491142281   -0.87931919494289
H           2.31619123115830    1.76748917855072   -1.23241940982331
H           0.72737536047115    1.55939178056942   -0.70059753975802
H           1.50886934399859    0.27513891647499   -1.56675387185600
H           1.97175522270120    0.64237299676206    0.03510932560409
