    26
        -50.46114351  Gyration_radius:  2.6924958545 Dipole_moment: 2.313
 S           1.97606577596408   -0.87343226171038   -1.71695621959853
O           1.05585362021363   -2.00335407961446   -1.60588713055446
O           1.65504517558871    0.03999115986448   -2.77254320987911
O           2.09880538841536   -0.19448330613007   -0.41744346132165
O           3.39451789155152   -1.51866317924202   -2.01785433190290
H           3.34736541288990   -2.37088775038469   -1.59362429503513
H           1.09518117312772    1.08828395575965   -0.73958903724017
O           0.34933212829259    1.66108404584000   -1.03405565180711
H           0.59287590630621    1.89368011677110   -1.93560049287398
O          -0.29229445454140    2.02821204855745    1.66922306683791
H           0.14015090184043    1.17590368232299    1.84995710036156
H          -0.08937893572341    2.22046579834844    0.74439046740066
O          -2.83145842713801    1.26197436686125    1.76748237582436
H          -1.93163425924723    1.67050134633947    1.73784725106942
H          -3.22146622552052    1.53008574382568    2.59986793150193
O           0.75939542583480   -0.54555813059211    1.80421071318051
H           1.26777681637145   -0.47668533761246    0.95949078615341
H           1.38338501994553   -0.85152998465570    2.46348750329461
O          -1.87069580907325   -1.16456102181726    1.21549621070898
H          -0.97892005513510   -1.08675212819031    1.59475468443728
H          -2.34858935862000   -0.34570842323007    1.47884406444373
N          -1.13110414567252   -0.62307562756029   -1.22633266788142
H          -1.52679925013032   -0.89105978353149   -0.25758382567505
H          -1.83989111519957   -0.69256886251218   -1.94855396718174
H          -0.73410867778606    0.34300973502933   -1.18286731201998
H          -0.31940994261410   -1.27487211271533   -1.43616055229093
