    26
        -50.44758554  Gyration_radius:  2.53715553042 Dipole_moment: 5.979
 S           0.29053571127896   -1.65435143420343   -1.48522382130467
O           0.76540132293657   -0.42453731843529   -2.08502886206273
O           1.27140214548971   -2.66056920817676   -1.28707725071815
O          -0.37580694733770   -1.28708377870828   -0.12488432345298
O          -0.89816855693551   -2.18840013548500   -2.28224229282820
H          -1.67558993642156   -1.53350291901660   -2.17351188938572
H           0.33135733396027   -1.27511139262614    0.58569778623180
O           1.40359392402564   -1.19204318158546    1.73385093872057
H           1.46770645285638   -2.04401361436536    2.16855205612464
O          -1.06983143978454    1.47217368881805   -1.61594739004338
H          -0.82570657924971    1.75471358831628   -0.71676682521364
H          -0.32992197662938    0.90948175104961   -1.91186648343088
O           0.19562366283163    2.24533362918201    0.72488416140476
H           0.98345366561320    1.72087762467386    0.42502621378526
H           0.43705974656716    3.16592454833877    0.60957627194573
O          -2.74924377831483   -0.46303230690768   -2.04496573156842
H          -3.11211408539978   -0.27868445474243   -2.91450339495097
H          -2.21198851069230    0.34117562819380   -1.79318879639191
O           2.20992980732022    0.75740069155591   -0.13422362468023
H           1.84939336488957    0.36452616601839   -0.94965788955288
H           2.30021102193447    0.03236409830042    0.49563774642886
N          -0.11104066051897    0.50047911317361    3.04823561429954
H           0.16207331610779    0.94581165461580    3.91493632103723
H          -1.05233996587474    0.14460206298265    3.15667347090268
H          -0.13747830475305    1.21433971380146    2.32013984639152
H           0.88148926613312   -0.56787421472107    2.33587815830755
