    26
        -50.46841076  Gyration_radius:  2.44176018878 Dipole_moment: 4.699
 S           1.22182424533976   -0.71523213418388    0.91281866343969
O           1.22105444240065    0.60733249315316    0.24889502263466
O           1.96235034206772   -1.69069122325645    0.16903033750824
O           1.87914559989688   -0.51842045355469    2.30817223664804
O          -0.17123973647008   -1.12435593800406    1.14095391227435
H          -1.31876171190673   -0.05782839456437    1.35967988845805
H           1.40940161921963    0.25844566410085    2.68435930396013
O          -2.02190123696520    0.63126358146293    1.50961021773081
H          -2.73695893647975    0.17506337676494    1.95713347518539
O           0.40779415142908    1.66695002235087    2.55950834341809
H          -0.54233542623146    1.49840923710698    2.48780663536070
H           0.73095597474474    1.67415286783695    1.64388343181771
O          -0.38151669181087   -2.43475673231648   -1.13865348976508
H          -0.50148141181081   -2.15238705635522   -0.20970062088673
H           0.54352931552556   -2.70637333534504   -1.16357287096090
O           2.42773072785287   -0.08555165457089   -2.15759940030898
H           2.75643913667589   -0.95666337290176   -1.92052683986664
H           2.28983590218800    0.34713674715539   -1.30394109116803
O          -2.54063192459695    1.43732872369729   -1.00929981628242
H          -2.57981049950235    2.39488513119970   -0.99655470139305
H          -2.42453101441986    1.15426181700821   -0.07420770863614
N          -0.34359362454818    0.12960759995520   -1.83109032278525
H          -1.25598499539812    0.63066701781708   -1.74438201018581
H           0.17158497440399    0.34184556709781   -2.68378119021976
H           0.26361113099317    0.41266688714358   -1.01410031722790
H          -0.46651035263266   -0.91775643878395   -1.73444108874434
