    26
        -50.46798882  Gyration_radius:  2.59126898628 Dipole_moment: 3.217
 S           0.47812910234931   -1.04072692286501    1.88999993913645
O           0.58876728204029    0.40775319434762    1.68535506139869
O           1.67152469084490   -1.72598811283435    1.44757394951856
O           0.38086597138130   -1.24990738190807    3.46017739990488
O          -0.75422830353441   -1.57363813978632    1.34600749813627
H          -1.93128323326846   -0.22614545048774    1.53120486905093
H           1.26685806621772   -1.07981045410518    3.76545552863583
O          -2.04120901603311    0.74045348440021    1.48416974469036
H          -1.14280122580574    1.04905680650733    1.68649067907356
O           3.27485408336347   -1.06689953660710   -0.56321895410706
H           2.78272522572455   -1.32703068275946    0.24724983091433
H           3.48071815866669   -1.88793985194202   -1.01307317424716
O          -2.41611545269026    1.08384790177747   -1.08302510585938
H          -3.32785016060130    1.34962780045695   -1.20909871055049
H          -2.28822384078390    1.01786579666711   -0.09428075551928
O          -0.28774949209965    2.41216649090472   -2.17294321323573
H          -0.45797638173526    2.48983810801327   -3.11241408680582
H          -1.09272760369782    2.02310611649818   -1.77530757798868
O          -0.92097469267491   -1.26733226824227   -1.30478192450768
H          -1.62905492393851   -0.60580254700948   -1.36739510626193
H          -0.92888219226925   -1.57847466782605   -0.37707689821922
N           1.07788397233474    0.42921868967822   -0.91379724051574
H           0.36485200512369   -0.30055580752996   -1.20080338836716
H           0.87659651553347    1.30070813486346   -1.43287639281285
H           0.94032328184440    0.57792462866199    0.11564343816103
H           2.03497816369489    0.04868467113632   -1.03923540961921
