    26
        -50.46831485  Gyration_radius:  2.5083043091 Dipole_moment: 1.245
 S           0.84926276460111   -1.59947523080091    0.58201453972473
O          -0.44929965833146   -1.53591218420899    1.23187631342146
O           0.75605991348984   -1.60306671665764   -0.86329903255376
O           1.73994592360581   -0.55602660291220    1.07226102929707
O           1.47542217278218   -2.98847515827908    1.00568829966115
H           1.08353925072191   -3.13066017121180    1.86141338591860
H           2.46355252798817    0.69435611210528    0.20099042272599
O           2.73523391961043    1.48825770066184   -0.30890954122882
H           3.61470568736382    1.30497084728306   -0.64131561999349
O           0.86470078388213    1.87853970796878    2.00259761685338
H           1.48447754128409    2.40878622184872    1.49238272953901
H           1.19596722404587    0.96666683856185    1.91892691960088
O           0.48984179783231    0.90694655522595   -1.73249949841694
H           1.29568816081926    1.34944799505954   -1.40990643803038
H           0.67319855945047   -0.04582648220122   -1.61823453869388
O          -3.55072338364578    0.27869380518850   -0.39165655716470
H          -4.10076044515607   -0.28179400810800    0.15730523160537
H          -3.02644809091329   -0.32938375826313   -0.95450644185379
O          -1.79149297864753   -1.27008582321895   -1.77565862723759
H          -1.53438338400112   -0.79974604828683   -2.57258597445443
H          -0.95609303781876   -1.55540015484397   -1.36346328577155
N          -1.08017130606655    0.90956509326693    0.42845544578529
H          -2.10026467227036    1.01527730730101    0.27175575640347
H          -0.56603076034447    1.01120379464256   -0.48968763780253
H          -0.64868760897877    1.55182431986948    1.11836506745726
H          -0.91724091172041   -0.06868394938911    0.77769047472943
