    26
        -50.45219717  Gyration_radius:  2.45074128641 Dipole_moment: 5.911
 S           0.22550345080358    1.97416143509838   -0.54126368534548
O           1.33391587015295    1.17573267621130   -0.07070683034840
O           0.53182008218811    2.89485185031765   -1.57815638489126
O          -0.90954088887947    1.01777271130892   -1.00759478715075
O          -0.43399843328544    2.66789236495338    0.65754294866590
H          -0.65849712809187    1.94803073187331    1.33117742574759
H          -0.62350339578556    0.73452618316566   -1.95241860146403
O          -1.09124525080152    0.79570490748286    2.29472041232492
H          -1.82798374204184    1.11383911811665    2.81993792575925
O           0.14336959570725    0.43239134277936   -3.20726372760399
H           0.81156858329929   -0.19605291571236   -2.81609745961725
H           0.59750517771835    1.26765737680953   -3.35812757859234
O           1.39072638948633   -0.53422822962984    2.00983992849291
H           0.62592309010365   -0.18292278152345    2.48069029623209
H           1.56779079956076    0.12306233040627    1.31366356716737
O           1.76703387290264   -0.94394615209807   -1.69415313979792
H           1.86759759266129   -0.17685140623151   -1.10552866642255
H           1.31900678227844   -1.61159748847789   -1.14389607566897
O           0.64743607200272   -2.46563811829745    0.34482387802474
H           1.14564804568468   -3.26578009977229    0.51800120811532
H           0.96346040119395   -1.79794776017374    1.00587633040686
N          -1.94404253842326   -1.09131880195961    0.71437189005998
H          -2.80142556512156   -1.61354201874182    0.84048877467985
H          -1.45132550335683    0.04024442540631    1.70439883460222
H          -1.18336384312808   -1.75400136889987    0.58170973621104
H          -2.01337950688180   -0.55204030242748   -0.14203623954492
