    26
        -50.46511482  Gyration_radius:  2.56383597678 Dipole_moment: 3.374
 S           1.13482878342647    1.23388165287331    0.60809858590721
O           2.05163432902626    1.54355980117170    1.67749066277850
O           1.02071711940840    2.22855282485152   -0.42888439845133
O           1.69060327082889   -0.07626886147754   -0.11703299759370
O          -0.19292365933249    0.83904821595645    1.10828844097356
H           0.08551936250590    2.27574932345243   -1.74998319206615
H           2.08064307087095   -0.57587966812819    0.62407193320525
O          -0.64827869625190    2.33334919364510   -2.41313076208589
H          -0.71082340466424    3.26159820341736   -2.64407635327815
O          -0.11850812803963   -1.68327825706683    2.02662528494384
H           0.77139517655796   -1.73371069888273    2.39385990873893
H          -0.25660542690742   -0.73849639488027    1.82374212991897
O           0.01278759221228   -2.31870556485589   -0.57257356351704
H          -0.12288896832716   -2.29333722620061    0.40167302526765
H           0.64538112509945   -1.60956555514106   -0.74615714217484
O          -2.22961608388386   -1.57842838898651   -1.68400729096738
H          -2.08981382195609   -1.67644043192948   -2.62718836667737
H          -1.42421375080090   -1.97273251449592   -1.24630498993538
O           2.58491425379918   -0.88391859646501    2.26794716007487
H           2.42627878579001    0.09423229289237    2.28489295410380
H           3.50946922411487   -1.01419298886078    2.48683509574846
N          -2.06785245392240    0.87421536774118   -0.69503132749765
H          -2.94205865414633    1.23232632067587   -0.32610411468890
H          -2.19919884535192   -0.10389653758299   -1.08357465494235
H          -1.68076911115035    1.49482490295667   -1.44743986881694
H          -1.33062105893520    0.84751357523235    0.07796383130876
