    26
        -50.47044584  Gyration_radius:  2.42974196993 Dipole_moment: 3.785
 S          -0.61179320098637    0.33319271354410    2.08722508990434
O          -1.24162382358368   -0.87507553564745    2.53941778820920
O           0.78908006683523    0.15723048077685    1.72709671888796
O          -1.33682594610795    1.00368017913753    1.00788859384619
O          -0.64204380694857    1.33849599879861    3.31941892889056
H          -1.06971978769672    0.80884498503648    3.98442230698835
H          -0.56701230353696    1.81061237829688   -0.13440064039966
O          -0.15774428732373    2.25717131093372   -0.92491321616027
H          -0.54525269199272    3.13280822762146   -0.95652826653207
O          -1.90532677754705   -1.15312774707549   -0.44976159080313
H          -1.23654932388279   -1.74734905550369   -0.05801964893275
H          -1.93965537645554   -0.39550997082438    0.16542926649933
O           1.80380454268713   -1.21695472629344   -1.59035589852431
H           1.49505477552004   -1.78858361524722   -0.87203359404497
H           2.19380865058453   -0.42420419302567   -1.14283038682524
O           2.31746032333166    1.03657104841363   -0.29613109073870
H           1.68415590012793    1.68065645617273   -0.63875483726080
H           1.93259269026804    0.75236625241046    0.55333538268843
O           0.38308810382963   -2.18659476931231    0.62920758616619
H           0.59286442730954   -1.33606149891149    1.07778592271527
H           0.11115334079572   -2.77340146658726    1.33815499481875
N          -0.41895200425229   -0.07455730831234   -2.30843908537551
H          -1.12901516169966   -0.54505108008199   -1.65591881651190
H          -0.32174704311765    0.90727883287297   -1.98687385365588
H           0.52231593232776   -0.57725922600709   -2.13462374042346
H          -0.70211719849421   -0.12517866118435   -3.27979792342721
