    26
        -50.46462210  Gyration_radius:  2.52386768557 Dipole_moment: 8.349
 S           0.19884663816840    0.27841388305109    1.86187484920363
O           0.66750559204676    0.24966231449255    3.21862634433367
O          -1.20152746654743   -0.04721161502881    1.67416492654903
O           0.34172113664572    1.77025217856422    1.31419331126939
O           1.05144874848407   -0.51480870006834    0.95753406521985
H           1.43027570058131    0.06963396517544   -0.46098437501694
H           1.27015412335371    1.97611995467603    1.53918868764053
O           1.63067970401234    0.33466414381348   -1.40056157265445
H           2.26570009640525   -0.30887966630790   -1.71944406175608
O           2.78871281566392    1.45276266274534    2.26007809291848
H           2.18784621077794    1.00166950600192    2.88779480894195
H           3.17927695884474    0.74905965529859    1.73624900447042
O          -2.00285372594903    1.60234840709424   -0.15425983718238
H          -1.44570250341865    2.34194288571005    0.10736082355427
H          -1.85105269241255    0.94031305939402    0.56696230866170
O          -0.73049675197777   -2.43098409075751    0.46792910863366
H          -1.38155272306856   -1.97580769985671    1.01684213704500
H           0.06689382294865   -1.87930205640017    0.59247343937749
O          -1.52481552036070   -2.20149666648572   -2.01608123100350
H          -1.28354776012764   -2.34138711508259   -1.05882976445087
H          -1.14157677286590   -2.93774440235024   -2.49401452301941
N          -0.90631770991962    0.37929339163258   -2.20351722756952
H          -1.11368043379949    0.82544937823909   -3.09030219590091
H          -1.21042388587140   -0.62891773719687   -2.20958949302055
H           0.12515022840023    0.40938260750271   -1.98988762734782
H          -1.41066384005079    0.88557175614935   -1.40379996889763
