    26
        -50.46798942  Gyration_radius:  2.52108413058 Dipole_moment: 2.271
 S           2.09007405984476   -0.40753678800397    0.28814915253689
O           2.01082116110498   -1.84717667292876    0.31458835586134
O           1.65409134400030    0.17143940555088   -0.97135230834090
O           1.42574433399647    0.23746262219188    1.41796393695210
O           3.62807467120543   -0.05100513586411    0.45152269381369
H           4.01998402060234   -0.80964554983812    0.03353971742471
H          -0.07866109074711   -0.24249332395082    1.76227751110122
O          -1.84113275367135    1.71279293274402    0.50316734851282
H          -1.06522315009000    2.26799929696959    0.71549587588056
O          -1.02203991987400   -0.50730551900881    1.90360962330116
H          -1.09458637192938   -0.75100292834172    2.82773993127728
H          -1.75621151285524    0.93146456628303    1.07744631886750
O          -1.79036847222692   -1.65425255216854   -2.21177938104400
H          -1.27900226683303   -2.06704937357548   -1.46606867399078
H          -2.70853969379095   -1.87886042506144   -2.05323828471114
O          -0.57062126251465   -2.44992775701219   -0.03314173299222
H           0.40182904974161   -2.36817502529361    0.01570037686975
H          -0.90555488833377   -1.87073581093918    0.66970763065255
O           0.63729190439267    2.69990061729829    0.85404265966467
H           1.00956133116936    1.80498872237058    1.00931804272943
H           1.11112202372990    3.29011440505538    1.44098550951777
N          -0.78574285825683    0.76799993326829   -1.72571672433180
H          -1.29442236325555    1.17963220024337   -0.88487715756799
H           0.20736868030355    0.55082798253360   -1.42933029877423
H          -1.23601200227713   -0.13774054907939   -2.01487744762560
H          -0.76784394345335    1.42828473653471   -2.49487269561795
