    26
        -50.45565514  Gyration_radius:  2.56680678335 Dipole_moment: 6.105
 S           0.96988820791919   -2.31171466132935    0.87773898791165
O           1.99571287068627   -1.63136166431998    1.62696753614763
O           1.22019809962066   -3.67141553831229    0.52713691973623
O          -0.34373585381528   -2.34197703513738    1.84095637396163
O           0.47566932972370   -1.47864097638113   -0.24146927818344
H           0.39372314411969   -0.19449968900132    0.75125313473413
H          -0.18277546683179   -3.13951706102561    2.33329033923859
O           0.55191234103959    0.53000620583815    1.39993650640176
H           1.16285334558767    0.08483414791683    2.00571149090301
O           1.94557355444007    1.95353163996934   -0.39710035986440
H           2.89041991387757    1.81227264314159   -0.32688393102951
H           1.53441917570213    1.44088961813071    0.33756597941338
O          -0.82630586502855    2.68060909664232    0.46148794835551
H          -0.03429310477527    3.08282245708740    0.08902481273946
H          -0.49525700822195    1.99592917631925    1.06853661166808
O           0.71198792558534    0.33511788866337   -2.20859725036808
H           1.25280862958598    0.98843437807419   -1.71954692639305
H           0.76715058408774   -0.48266676701232   -1.68050244183910
O          -2.13851630109215   -1.36551624027470   -0.21075244941499
H          -1.18158434880862   -1.58815502892549   -0.28647295614192
H          -2.33702582329991   -1.49141816445458    0.72026992145991
N          -1.69311362719247    0.97228957823411   -1.40490003876592
H          -2.37410509401550    1.27773404349241   -2.09065590876716
H          -0.75053963103412    0.73002626075184   -1.86569510516396
H          -1.49888119840696    1.71835950064543   -0.68848475447225
H          -2.01618380938197    0.09402619131781   -0.91881518226983
