    26
        -50.46923805  Gyration_radius:  2.4797685874 Dipole_moment: 2.936
 S          -2.13571341097967    0.73878277506329    0.15117462063443
O          -2.79297139956095   -0.24457944301057   -0.67199614801949
O          -1.97669049165582    0.32738019645513    1.53751417484152
O          -0.87991459703909    1.22622853449490   -0.41007687725274
O          -3.09020780634495    2.01106048892931    0.17030169612422
H          -3.93616777016189    1.60270568738726    0.32019003036991
H          -0.26470285982751    0.48018302285725   -1.70018764283118
O           0.22057956680683    0.02997057487754   -2.43854605106464
H           0.02091936907351    0.53169634195296   -3.22994806499486
O           2.49269319418082   -0.21285797640588   -1.02377722359506
H           1.69963654379929   -0.14618905401625   -1.60020460401746
H           3.23677750997408   -0.40436567690957   -1.59567040912247
O           1.31021644553394   -1.97351476048273    0.79175303353612
H           1.87575878464218   -1.46569958425791    0.18587399457393
H           0.49109123027405   -2.15486741818959    0.27665474174378
O           1.51249494505191    1.80865037355745    0.66407161264514
H           0.63669479441980    1.82471691334423    0.23142503221667
H           2.05667827752935    1.23716273529989    0.10002008206657
O          -0.82170167683105   -2.03463817981303   -0.80830307964647
H          -0.44175724318434   -1.66510489370966   -1.61498717208352
H          -1.63759375045874   -1.51900306020885   -0.66826986655827
N           0.49264435937535   -0.00000673557433    2.30208273427937
H          -0.53599371753065    0.11623543104268    2.06638533691861
H           0.63606876794660   -0.03008018360096    3.30446465472103
H           0.83347684504806   -0.89044803042451    1.81675024940233
H           0.99768411991175    0.80658191132984    1.84330513510254
