    26
        -50.45752569  Gyration_radius:  2.48500661338 Dipole_moment: 7.614
 S           0.49515242424082   -0.85346474808630    1.52454691634586
O          -0.62964205446759   -1.45777227654726    2.19607734091826
O           1.80013287324722   -1.23898849554272    1.96045627346037
O           0.37287007719491   -1.34512612233218   -0.01759752967662
O           0.33694674785624    0.60932863013121    1.39473692766527
H          -0.80757690635655    1.33617481961667    0.66797951541498
H          -0.42625023374236   -1.95321889861484   -0.06912294464348
O          -1.49012565678154    1.76658202550733    0.06627288252825
H          -1.61215076949576    2.65595804980652    0.40083062885046
O           2.77396503634179    0.77827632702368    0.46084195362918
H           3.04083668165900   -0.07691342327257    0.82040441354841
H           1.88618510897294    0.88828970427035    0.85896868894408
O          -2.81697409564614   -0.57971995980046    1.00498736469567
H          -2.09534539810335   -0.80644777466771    1.63162699063609
H          -2.60096037723037    0.29235529151719    0.65148996598328
O           2.41695178192862    1.53277896476046   -2.00534381113798
H           2.66432577104320    2.45875406282773   -2.00160225771393
H           2.67925990343778    1.18280780115938   -1.10938593385313
O          -1.80311220085828   -2.70219898622030   -0.18281303095312
H          -1.77042607671871   -3.32093435177490    0.55124423711914
H          -2.37513485085896   -1.95990724067237    0.13739465691684
N          -0.02076641697563    0.56746527097063   -1.81668760276933
H          -0.44810672114076    0.22838341338653   -2.67228366814614
H           0.91361619761368    1.03981191079554   -2.00253003030963
H          -0.66431197199787    1.19760949631767   -1.28690616992088
H           0.18064112683352   -0.23988348056131   -1.16358576753410
