    26
        -50.46711279  Gyration_radius:  2.49256063079 Dipole_moment: 1.546
 S          -0.22420270760975   -0.54598424725943    1.89232122360933
O           0.44403964873956    0.64973303448871    2.35794956027591
O          -1.55020560228307   -0.34353525862199    1.35481284174973
O           0.62703084238816   -1.28574750375632    0.95317703706513
O          -0.40305839517444   -1.48279335027943    3.15651342975038
H           0.42928923669652   -1.40298827582565    3.61146833543641
H           1.73664457421652   -0.12398496559458    0.46983417459535
O           2.25211223556659    0.63148000520327    0.11376702448671
H           2.41357070573870    1.18914203257776    0.87867770568411
O           2.23139548873605   -0.53145046308494   -2.53536299865828
H           2.38455519187845    0.22107556500577   -3.10955965374075
H           2.46960739653509   -0.23997608157079   -1.64448842022338
O          -1.15999366199663    2.32035842670543    1.03899323062958
H          -0.47864273756912    1.96901136052850    1.64014909981518
H          -1.83312465551434    1.62959451583663    1.05818657812491
O           0.12473496994728    1.75651813803736   -1.22269308524417
H          -0.41842076134500    2.11485998987339   -0.48231263451401
H           0.99896076350700    1.58178738740318   -0.82949318984110
O          -2.73536655828341   -1.54732980635451   -0.72452276646720
H          -3.66859280167763   -1.33162325061968   -0.71787644655177
H          -2.36565362933838   -1.18590747639876    0.10775872954462
N          -0.27076758221417   -0.82705102649799   -1.50177334494034
H          -1.22235253775766   -1.19770801298448   -1.63350345547781
H          -0.26677233572998    0.24059593083500   -1.47507889101284
H           0.06054515822707   -1.14235286223253   -0.55692333292836
H           0.42466778464393   -1.11572379430484   -2.20002074134190
