    26
        -50.46601162  Gyration_radius:  2.43640246564 Dipole_moment: 5.663
 S           0.96263732121930   -0.99202543852512    1.33840842395810
O           1.26934641052096   -0.77563866410151   -0.08968331756432
O           1.69290471011376   -0.08199623921538    2.16859889891334
O          -0.49425153908696   -0.87639742941477    1.53132715045170
O           1.36961988102237   -2.45572511529868    1.66743828384405
H           0.80708717450379   -2.98763376198519    1.06909404059056
H          -0.53330355823961    0.78141001370780    1.86247235183711
O          -0.38380443793951    1.74965844712779    1.92618966278717
H           0.21967587877026    1.83367827703007    2.67016784744281
O          -0.60361998733200   -0.62470187474203   -2.00019563028385
H           0.11995090676656   -0.76901573983062   -1.35774273518256
H          -1.40896290569867   -0.48569560502620   -1.46313066274498
O          -0.58052497637514   -3.12473304899472   -0.00157069442762
H          -0.96383183061685   -2.40799681342527    0.52538322865412
H          -0.56011280909191   -2.81136073254700   -0.91205224341137
O          -0.01992148888609    1.87033541818684   -2.56926107942167
H          -0.31935562329164    0.92348957056633   -2.46324423878139
H           0.43697636882822    1.90970232032969   -3.41026048584036
O          -2.45911233880676   -0.06513041103616   -0.11292201737133
H          -2.67512268713113    0.84085433749668    0.11463311469320
H          -1.85349332440172   -0.38232206013434    0.58173203511563
N           1.20986916401458    1.81807172188331   -0.22108530832352
H           0.74751992019050    2.01875271307257   -1.15060801426003
H           1.40195146922740    0.77037708437004   -0.19349408544803
H           2.06923246206368    2.34160400058107   -0.09498025683718
H           0.54864583968653    1.98243904993267    0.58478574161630
