    26
        -50.46397213  Gyration_radius:  2.53846444556 Dipole_moment: 2.293
 S           1.84481228466749   -0.65761097033406    0.71855384041278
O           1.97406757719702   -1.84534301719771    1.52057437216626
O           1.27837561925573   -0.89176639807729   -0.59843720939345
O           1.19469563739576    0.46251686968776    1.38382763293990
O           3.35170411860848   -0.15641015659149    0.46490998714652
H           3.87779689516642   -0.92111341052651    0.67898833557922
H          -0.31560079751111    1.11710358131179    1.31396508263408
O          -1.14211319063028    1.59545705256373    1.06685218827070
H          -1.07216129904187    2.46380242123101    1.46675448431403
O          -0.66576001663940   -2.21404540101333    1.41595341865651
H          -0.85749603294312   -2.51743951968598    2.30607941587652
H           0.30329888588584   -2.12812616021202    1.36716176343261
O           1.91651541691422    2.12732512285920   -0.62787077350440
H           2.84635107094580    1.95356269388396   -0.78145410547789
H           1.69898485837218    1.61082318635061    0.16604229697808
O          -2.64653847884489   -0.68179219183259    0.31681252368153
H          -1.98138526005318   -1.31746340203255    0.63774794636406
H          -2.37995533517292    0.16559595849334    0.69465453293689
O          -2.43742691764228   -0.55256994135599   -2.31423877377443
H          -2.19206177036113   -1.43574844105589   -2.59533443129182
H          -2.68040992811678   -0.63567048910385   -1.35609462913279
N          -0.39292837859831    0.90961426862808   -1.47605095462068
H          -1.16953589310587    0.44160504060242   -2.01046159964996
H           0.12476831260152    1.61774305804078   -1.99019050741123
H          -0.77749735577052    1.32731769056114   -0.60560664157266
H           0.29949996744490    0.16263258486894   -1.16313820559241
