    26
        -50.44433348  Gyration_radius:  2.52991274365 Dipole_moment: 5.554
 S           1.44352457616586   -1.61175790572214    0.89792556340502
O           2.53354384563293   -0.74355683295944    0.52306679556653
O           1.70413411499547   -2.99082776239367    1.04914502266222
O           0.82198931001131   -1.03616208144436    2.20801913330667
O           0.30273449606999   -1.42347090847012   -0.13179391762137
H           0.20439711320561   -0.41705371225442   -0.32909339736902
H           1.01612783650952   -0.04544552447759    2.16498280897788
O           0.16716067080364    1.05369892643562   -0.62287102435409
H           0.92136917476279    1.10104211218884   -1.24334794606262
O           1.31104061295500    1.43115290463879    1.76396318706192
H           0.82087068092911    1.51452213370653    0.91963653436370
H           2.23667679358378    1.33527969458513    1.51519448973684
O          -1.87831560805535   -0.23947842458551    2.01238947898559
H          -1.68588892545129    0.68360004977105    2.18836438480841
H          -1.08278696729350   -0.73547474082192    2.24574153880432
O           2.51821231389373    0.59214390064290   -1.79452305329261
H           2.78810356743477    0.01349731824544   -2.50880528251082
H           2.68776224677842    0.10034652511693   -0.96581738110814
O          -2.55941932840610   -1.26709137757605   -0.48337791914398
H          -2.54555759771634   -0.92545644333002    0.42572835715349
H          -1.73588227335356   -1.75670213696633   -0.57354150743330
N          -2.07764222387824    1.11293718062051   -1.92866465057660
H          -2.43372193775687    0.23957748219236   -1.52279991236466
H          -2.74027887689896    1.84709986479838   -1.71564637556389
H          -0.69207064645113    1.16637526979309   -1.16014614044891
H          -2.04608295760255    1.00120446800665   -2.93372878685951
