    26
        -50.45917776  Gyration_radius:  2.68535236157 Dipole_moment: 3.922
 S           0.16540265396197   -2.66152890743725    1.05177043986759
O           1.12527982448300   -2.53543531423830   -0.03969704667725
O          -0.26965664647494   -3.99146837133749    1.32926279141783
O           0.95932704855942   -2.17867925634842    2.37772815573018
O          -0.89544141284330   -1.66317427351282    0.90005269782446
H          -0.00169071398735   -0.40396346471796    1.24269348067721
H           1.19764822652857   -3.02553086435917    2.73881828528187
O           0.50573172653348    0.41859748623129    1.47453912846932
H           1.01599624663738    0.16752975058753    2.24730027830262
O           1.81022538206903    1.46514575748515   -0.72146192720379
H           1.24980433974253    2.22736441910894   -0.96127362142295
H           1.51985927689594    1.19613496182513    0.16803794828484
O          -1.59389730915286    1.91709448167038    0.67245488724326
H          -2.25049488073887    1.99376482035271    1.36597220201261
H          -0.82569588033409    1.45136842987093    1.06363676263926
O          -0.18023915218828    3.24785747909494   -1.28062598260847
H          -0.76313754175406    2.94467902180353   -0.56542872564067
H          -0.69773801256455    3.21972586460969   -2.08659961815579
O          -1.84917697580846   -0.20636509037448   -1.12331180549350
H          -1.89928008953633    0.63325143879390   -0.63667000133515
H          -1.74207884442985   -0.87825530247976   -0.42231286671563
N           0.68829767121618   -0.66587738062846   -1.78908203580786
H          -0.34126783089983   -0.45313644633900   -1.69230754160248
H           0.92785860861616   -0.95020993070044   -2.73175297093097
H           1.24124611658128    0.18774587468436   -1.48011288144707
H           0.90311815888561   -1.45663517362526   -1.10163004271231
