    26
        -50.45495738  Gyration_radius:  2.50684053117 Dipole_moment: 6.364
 S           1.52703334416149   -0.71571325867107   -1.42610427049539
O           1.74655768296893    0.51091753080960   -2.18621569767144
O           2.14604392818700   -1.89954020436155   -1.91817026339182
O           2.18872829943407   -0.45812848532974    0.00581249397288
O           0.07900283237428   -0.87742062003412   -1.16145539765113
H          -0.46558258787380   -1.17253409053921    0.30449106680914
H           1.70001029506908    0.23563114019570    0.48850143311417
O          -0.65955345174405   -1.27476278859226    1.27366700642610
H          -0.14148209104880   -2.06761497129472    1.48830105454752
O           0.67795286595400    0.94856345597962    1.71740090761704
H           1.15255833062187    0.93250843798349    2.54985334908751
H           0.12171970518430    0.12324073591857    1.68629988805375
O          -1.13807411144462    2.56081439496919    0.41780776217532
H          -0.39764218949620    2.23078734808497    0.95196719069887
H          -1.88212533535647    1.97161901426915    0.64378522521749
O           1.36289196501552   -3.01849293591563    0.65860065983412
H           1.29871021359175   -3.45274514440044   -0.19604346203480
H           1.92425154043568   -2.25170294552696    0.48338005102314
O          -2.79536121585852    0.47418287323961    0.99663204724104
H          -2.15442863891219   -0.24612993997003    1.11421791254440
H          -3.51906704678462    0.29954057250384    1.59916446923793
N          -0.58274850643379    1.47137968888198   -1.91818893717896
H          -0.78460868283169    2.05899903795563   -1.05501952335967
H          -1.11441644454891    1.77733366269333   -2.72503751438269
H           0.46493947711810    1.37149648249899   -2.12455884643185
H          -0.75531016777142    0.46777100859297   -1.66908862503092
