    26
        -50.47371635  Gyration_radius:  2.37472243422 Dipole_moment: 3.045
 S           0.01754863785963    1.39425564410946   -0.73265693214398
O           0.70584902732337    1.26709419813157    0.54595236034388
O           0.80846303954982    0.91216228949507   -1.83996593966089
O          -1.29511325663661    0.72995372339359   -0.66153589594526
O          -0.24443231649102    2.91463830689917   -0.98566619873172
H          -0.78479229135559    3.19596333320751   -0.22727489485512
H          -1.01230260673773   -0.73267638962354   -1.55372110668601
O          -0.53841357779700   -1.44683726827325   -2.02299163777902
H           0.02726046860272   -0.96395484142891   -2.63653077083479
O           2.86348514963830   -0.19185462842554   -0.63285774010542
H           2.22546854114104    0.26559419380244   -1.22505239642074
H           2.83211526629546    0.32629069209674    0.17766645457433
O          -2.32797280155937   -0.82221423335280    1.29272561115815
H          -2.05965733761306   -0.32475640486615    0.49796029172544
H          -3.01723302064153   -0.30884782864224    1.71808524514346
O          -1.64061567395322    2.56534912561662    1.26863203724685
H          -1.80931601446807    1.83194645784989    0.65553403812046
H          -0.83822754308232    2.32098095077357    1.74223599617830
O           0.28015391526094   -0.96500887704379    1.93764232348909
H          -0.69471696229021   -1.03375836810683    1.90480018288677
H           0.48633914221455   -0.08919528115725    1.54592682399915
N           1.20994577818489   -2.20675360385558   -0.15648950241283
H           0.47658394095000   -2.05975100588589   -0.90319344998595
H           2.00946780634547   -1.54780944144801   -0.37742989683053
H           0.80981981163945   -1.85717569847520    0.77686402992938
H           1.51029286767684   -3.17363504472793   -0.10865902241210
