    26
        -50.46534128  Gyration_radius:  2.38876604548 Dipole_moment: 5.798
 S          -0.45261114207012   -0.75863588928970    1.64880912823239
O           0.78720606028393   -0.90874126967060    0.90123203456293
O          -0.68181054683617    0.56708169237421    2.14554372594186
O          -1.58189656981425   -1.29125689819997    0.87929705322548
O          -0.33247533538715   -1.70607207479025    2.91649522065317
H          -0.52573478667451   -2.58027943836311    2.59230752395120
H          -1.74369087460717    0.15399242283794    0.09385798615312
O          -1.77360791910835    0.96584353312339   -0.45746534135419
H          -2.38972766435356    1.55226053782700   -0.01405924885280
O           1.69674015216399    1.72978141193054    2.02350053230922
H           0.81295604384726    1.36670852843264    2.22913391658629
H           2.24257619948336    0.96538930590607    1.82541959019661
O          -0.38335505139386   -2.55483864795430   -1.06123529484355
H          -0.96509341436371   -2.19466486483317   -0.35163602204846
H           0.50145901761114   -2.48174487627730   -0.68618260076555
O           1.80261221053565    0.36042032082801   -1.24198049557470
H           1.60302158393585   -0.14948858852618   -0.43122621678544
H           1.56431310150533    1.29404730757059   -0.99567976267206
O           0.67635291215045    2.53670310234278   -0.34132603873881
H          -0.20371282463998    2.14779908667588   -0.24436057955058
H           1.08195087838710    2.49305609319920    0.54997972233255
N          -0.36737517457544   -0.29735682759188   -2.43779352827080
H           0.62105838794456    0.01793765133442   -2.06842954702008
H          -0.47472187291591   -1.28563477955322   -2.07317380471979
H          -1.05828238216138    0.29584167120641   -1.95573121626063
H          -0.45615097894929   -0.23814848053943   -3.44529670668837
