    26
        -50.45811380  Gyration_radius:  2.6919159571 Dipole_moment: 6.639
 S           0.49138250289741   -2.03797198844634    1.31995001188730
O           1.30248049797312   -1.12041994923016    0.54724785364689
O           0.25493340399603   -3.30880571554188    0.68913983572612
O           1.32394881663136   -2.33615720910507    2.64836997100283
O          -0.74714484725392   -1.38419973731928    1.77211991482956
H          -0.83605301390934    0.20837822975394    1.73129500850708
H           1.01293376842388   -3.20053994389881    2.89824532292254
O          -0.96716247739938    1.18866068748386    1.60639809518308
H          -1.75905656996119    1.40788867602910    2.09919661763096
O           1.86643426039150    1.34514638536284    1.48843852891318
H           0.97635196495445    1.62951551373993    1.72635106801238
H           1.78804415981954    0.37965657063334    1.37529796058469
O          -1.40139507960342   -1.70736699514526   -0.76519964541406
H          -0.83954001256454   -2.48494686437258   -0.86898203384914
H          -1.42787074199073   -1.60482845064385    0.20598853418332
O           2.09590903590458    0.85230316780210   -1.15416895155521
H           2.23523272170228    1.31963566333990   -0.30438485589216
H           2.16238249909197   -0.07789499027479   -0.89397873997600
O          -1.63873253550672    2.26313615061074   -3.24314215933610
H          -2.20408713959408    1.81589273561310   -3.87638127685809
H          -0.99260903744618    2.77208668488030   -3.73785941720245
N          -0.55069705880718    0.83006261913581   -1.06862946621158
H          -0.84764468256431   -0.17409152524406   -1.11087322349274
H          -1.02820741169007    1.38788429362812   -1.78562020954879
H          -0.77602830036826    1.16043339540537   -0.11015139480429
H           0.50619529686719    0.87654258579463   -1.18866735889549
