    26
        -50.46444920  Gyration_radius:  2.59180924992 Dipole_moment: 2.445
 S           1.82641463202233    0.39412751897253    1.53596539905321
O           2.35354113834517   -0.22074976135004    0.32119014487484
O           1.35413734958810    1.74222481042331    1.31181008392436
O           0.84334137583746   -0.46377226623900    2.17731430980202
O           3.03979368102481    0.50189855374221    2.55463878900404
H           3.09347140522079   -0.37476304585094    2.92282474886356
H          -0.51600166672552    0.25859467115256    1.74621344128223
O          -1.25992760100587    0.79212832725904    1.36350509973325
H          -1.05846070202145    1.69145198277449    1.63556706634332
O           0.58625444051972   -1.84570142392097   -0.63527545740174
H           1.05389879451566   -2.53048299936957   -1.11553406399882
H           1.28009919182447   -1.30209559882792   -0.17752667455971
O          -2.16263063562357   -1.68293712031574    0.16477042413003
H          -1.24759113116596   -1.97851787532254    0.06216676915476
H          -2.13657763830505   -0.99121177625331    0.83546846239411
O           1.63712411395726    1.95222063493796   -1.28854262087012
H           2.30337210071878    1.25839067616795   -1.34321798342651
H           1.56218559400181    2.10339055231099   -0.31981113020657
O          -2.94175332999878   -0.43452766746780   -2.11924455290250
H          -2.77190693070825   -0.99485903063914   -1.33096973012465
H          -3.89016572906819   -0.42619220270278   -2.24700072330063
N          -0.59666703422228    0.52835094016366   -1.23837348821493
H          -0.92688931806553    0.71859831375092   -0.25725405185827
H          -1.40650717264844    0.53572656109993   -1.87157014134900
H           0.18200572758335    1.20074824243364   -1.46440469231988
H          -0.20056064572265   -0.43204103676402   -1.22270941805143
