    26
        -50.45605395  Gyration_radius:  2.5939907574 Dipole_moment: 6.041
 S           1.95792798933854   -1.08883441667296    1.25745374215583
O           0.83996894495188   -1.07655562228710    2.17673917553924
O           3.24752439788332   -0.83951171354345    1.81906905728075
O           2.04648075779970   -2.58386345243652    0.64689843942902
O           1.65565753952000   -0.24650860297183    0.08483724466091
H           0.67659949325143    0.79986286815531    0.89861886767723
H           2.94017799415287   -2.80677730294526    0.88622983331217
O           0.05242959207089    1.42117939941870    1.33887092633614
H          -0.00972794925486    1.07238190619063    2.23310453572438
O          -0.71749953322277   -2.34074059890659    0.47610782130506
H          -0.27406779347075   -1.84334789086359    1.19445754403460
H          -0.05086025847772   -2.96064563644193    0.17287396952437
O          -2.49419098583868    1.28930757312988    0.28866259083694
H          -2.50282665802978    2.12080215950082   -0.18959921036709
H          -1.64655480756726    1.26494173204608    0.77155233167853
O          -0.11209856248848    2.88096452282974   -0.96614506460290
H          -0.05820135682587    2.54786508369426   -0.05276798129063
H           0.62679371339637    3.48170685057755   -1.07411816545555
O          -2.13160090531878   -0.88266667320529   -1.24222296072767
H          -1.74874311405323   -1.53459193133161   -0.61315447612967
H          -2.50847412541578   -0.17909262446771   -0.67301740887779
N           0.05016506879091    0.30533160114396   -1.91662987183916
H           0.39712000630727    0.12030305412332   -2.85056216314075
H          -0.07032953677891    1.32376067987902   -1.75184681932728
H          -0.89953731111047   -0.21144803588782   -1.72398516763597
H           0.73386740054310   -0.03382291863528   -1.19142680000343
