    26
        -50.47071327  Gyration_radius:  2.41588427557 Dipole_moment: 4.158
 S          -0.31192601428987    1.77247879330746    0.93432295728410
O           0.82943922242488    1.16385745829664    1.62064048052934
O          -0.03010489957889    2.02759202717220   -0.45769772214664
O          -1.53498393912021    1.02179590682063    1.16641900910074
O          -0.53309678641798    3.18655617005930    1.61114565876966
H          -0.91931996841590    2.95369530146525    2.44844885685619
H          -1.16869383266557   -0.54700769112342    2.17370866115901
O          -0.35842565539384   -1.03700331052757    2.38422751911062
H           0.31992395428839   -0.34039161166062    2.28028282119957
O          -0.11227998398974   -2.51239186202713    0.26039339195864
H          -0.16912020965265   -1.98618828302653    1.11171354318058
H          -0.06311785512111   -3.43289465572694    0.52039190724720
O          -2.23990891584716   -0.81774766410230   -0.68155512233224
H          -1.68638020980026   -1.55300457720075   -0.38636207437071
H          -2.12854135619061   -0.11405869180763   -0.01384027384946
O           2.49415209979006    0.97053630393869   -0.37438384522973
H           2.12670245948056    1.71447741967558   -0.86480061345035
H           2.00937398956599    1.01456309963507    0.48243127508308
O          -0.71319456736233    0.40591175664132   -2.45734574900052
H          -1.45961638673625   -0.05336094356308   -2.00398595176285
H          -0.53086469552121    1.17400974801960   -1.87893529944360
N           1.25444098046393   -1.02762868434405   -1.58221909147239
H           0.44530869797332   -0.47226113042739   -2.06024858465939
H           1.80367344089103   -1.54097954602968   -2.26226486875890
H           1.84817024488300   -0.29911130028284   -1.08230739089202
H           0.82839017635212   -1.67144403318017   -0.88817948412193
