    26
        -50.47298405  Gyration_radius:  2.48796299318 Dipole_moment: 1.935
 S           0.58581530302184   -1.26810362933145    1.62998766583601
O          -0.65256691362264   -2.01344119293384    1.73123964139888
O           1.42375783143776   -1.65532531014111    0.51513632661873
O           0.35544132013883    0.17459962889243    1.66722519831577
O           1.41315517130758   -1.61536312268369    2.93721116821313
H           0.73692481328554   -1.62141410133624    3.60633868706320
H           1.73579223495262    0.80607428764151    0.93064641558154
O           2.47974831675614    0.79007915500562    0.29049278730657
H           2.65427738227390   -0.16058988488845    0.22573538959398
O          -2.22561944629009   -1.50809796719898   -0.26877875617828
H          -1.66787554627382   -1.74080881166544    0.51797970933346
H          -2.91674895550159   -2.17092602357794   -0.31088754588479
O           0.05868602762236   -1.32695004941350   -1.74152255247402
H          -0.85627384125645   -1.38941487502824   -1.41238449306288
H           0.61546154609576   -1.60117733616011   -0.98280216187916
O          -0.98641182299034    2.77743988728448   -1.10820986588110
H          -1.45097862744474    2.16404394048983   -0.47219183462047
H          -0.75611956524679    3.55202414333528   -0.59300483995824
O          -1.94060444747591    1.09507751058985    0.64255288542393
H          -1.13390622800747    0.82028285166165    1.12197528525342
H          -2.27922291703736    0.28031044941921    0.24229629456651
N           0.96829714252371    1.13732066771118   -1.85510292961048
H           0.20809939237279    1.83299806385302   -1.62409105231832
H           1.65916833943424    1.09881319395139   -1.04766198102631
H           0.54069184869084    0.16100051225129   -1.91879635736955
H           1.43101164122526    1.38154802226225   -2.72338309423494
