    26
        -50.47033062  Gyration_radius:  2.49972236131 Dipole_moment: 2.147
 S           1.44431873805771    0.44765636724971   -1.32403744561087
O           0.07410346838062    0.86544665310922   -1.63800256308877
O           2.19073739343012    1.50796202204818   -0.68747688517115
O           1.47699608653302   -0.81003173599333   -0.60567914938130
O           2.14983530468560    0.17011832335864   -2.71608373880941
H           2.46099432148768    1.02933656824274   -2.98296562288052
H           0.29888818462399   -1.88132728791904   -1.73621866064503
O          -0.54046423356650   -1.67789109041871   -2.16958048272935
H          -0.53608722805459   -0.70649476033503   -2.19457695548262
O          -2.29696011144027   -2.23515504172246   -0.23619601825672
H          -1.65109759530239   -2.08446647236967   -0.96686888823984
H          -3.14535058008566   -2.38281704382536   -0.65472857625392
O           0.97753636109486   -0.79297061698663    1.96481288590956
H           1.17357600335457   -0.83105102798919    0.99793598583336
H           1.45984900911064   -1.52104383590759    2.35967114879697
O           1.26360483064620    1.96479572588987    1.76106083043257
H           1.76003183103103    1.91908363214825    0.91663311072664
H           1.30300937974056    1.06579569067223    2.12489281388739
O          -1.76147741673088   -0.52272235081644    1.74984243338805
H          -2.02202011583267   -1.18621784585386    1.07473794897065
H          -0.84976091121415   -0.75316336438662    2.00128637767484
N          -1.07246486516597    1.70680157163261    0.58752426658935
H          -0.71853453611763    1.43308155337682   -0.36329168603386
H          -0.20900939121423    1.97811041594647    1.14930430434131
H          -1.74320881649364    2.46423640216103    0.52987765184200
H          -1.48704511109921    0.83292754884644    1.05812692438178
