    26
        -50.43202942  Gyration_radius:  2.54770350866 Dipole_moment: 3.282
 S          -0.33548009225201   -0.60571061715154    2.11208024739842
O           1.02857608112585   -0.61707943458058    1.65553680140331
O          -0.96623029766733    0.64563288489316    2.30854130851264
O          -1.16891598887907   -1.48366323796665    1.17027939648744
O          -0.37099265437186   -1.39473464172995    3.47289855040885
H           0.34523158268548   -2.02618594516022    3.46510616206418
H          -0.51448900417168   -1.95427960320079    0.51071312443177
O           0.05114590969558   -0.31631202276874   -1.97452922487020
H           0.01474074551815   -0.02007990425426   -2.88484992764300
O           1.47890295441133    3.10379269449161   -0.50291509803645
H           1.87193762492335    3.55525418249340    0.24477415184235
H           1.93057593815168    2.23735752726464   -0.56699764418175
O           2.31839650135956    0.50946742387100   -0.53085236956624
H           1.99405872126974    0.22533020453058    0.33534544134780
H           1.66008442224046    0.20038941814360   -1.17358292412672
O          -2.72128907416262   -1.08661610706057   -1.32354256095893
H          -1.83669055458024   -1.00255891123155   -1.69577940444289
H          -2.59902415575339   -1.22154957607352   -0.38051551379445
O           0.56593420216727   -2.38258739143928   -0.39292314924038
H           1.33521223075397   -2.02036278220405    0.06523584710007
H           0.40304830765780   -1.78039996084663   -1.15158737505653
N          -0.94536465001195    1.53850924964385   -0.49395573056922
H          -1.83920796625432    1.88452517155197   -0.81931169433197
H          -0.37916307319395    0.43291554232207   -1.39907776112983
H          -0.27013973325149    2.30375336492080   -0.53136444015655
H          -1.05085798733924    1.27519247153548    0.48127379707519
