    26
        -50.44646524  Gyration_radius:  2.50605724468 Dipole_moment: 6.223
 S           1.89475038134393    0.28522559019340    1.44999541133298
O           1.94213081548571    0.15346425306754    0.00848951301043
O           3.10715673290659    0.61382437478193    2.09903078924326
O           0.77154281939600    1.32096246092292    1.77227279660610
O           1.32638628336764   -1.00911985507909    2.05502110335703
H           0.46038654975057   -1.26564672740268    1.60189630331921
H           0.70548102907572    1.91094985885521    0.93899632337496
O          -0.89245342519999   -1.71644163927246    0.98707612960135
H          -0.95035040597703   -2.66468954505712    1.11387909956495
O           1.78919170658844   -1.63446344695223   -2.00264799574797
H           2.64518403499968   -1.69247826782664   -2.42909843296894
H           1.90342845997931   -1.02488508249130   -1.25151481620320
O          -1.97516409958813    0.74005704534758    1.56411351201464
H          -1.16175331111562    1.10180652192430    1.94052691311163
H          -1.81715637904124   -0.21458976789152    1.49554650312265
O           0.64807993585550    2.43192452795054   -0.48704035979044
H          -0.25407341373276    2.17662156896668   -0.78654837137440
H           1.24245546480562    1.72470431712238   -0.78096996678365
O          -1.85261692137234    1.56489939477782   -0.95220261679097
H          -2.50778640119110    2.24779044409921   -1.10316979769559
H          -1.98395787993466    1.25797396609189   -0.01754002263016
N          -1.03765909867958   -1.25924074644832   -1.53770071024785
H          -1.69113723108028   -1.80805505081631   -2.08042483844249
H          -1.27437550525000   -0.27846234419359   -1.64791615731829
H          -0.93438944929111   -1.55001543392638   -0.04148813260777
H          -0.10330069210157   -1.41211643670615   -1.90858216904750
