    26
        -50.44867339  Gyration_radius:  2.57826071034 Dipole_moment: 5.547
 S           1.03615746404742   -1.41415539255615    0.34491132875231
O           0.49660393129813   -0.45489895791955    1.28633539120067
O           2.43334894511075   -1.66485033177498    0.41312275306157
O           0.24152819716806   -2.71786695804893    0.47699135999162
O           0.70472702589019   -0.92559749434285   -1.08830999485030
H          -0.15787510711168   -0.39984778492721   -1.02054926910740
H          -0.50066972977221   -2.59943789114027    1.17900960764652
O          -1.33331496789803    0.44639928612919   -0.45071647325446
H          -0.89360519591402    0.41316376309537    0.41493166152854
O           3.38624640377653    0.33926925159085   -1.14529242534719
H           3.28982144572551   -0.42253089594420   -0.55027612267268
H           2.94067901687502    0.08847891352155   -1.95734126552037
O          -3.32376256588933   -1.16939898209491    0.43999468894847
H          -2.76246642091563   -0.49978839356688    0.00637914740049
H          -3.61895984810399   -1.77235922067767   -0.24407146414859
O           1.71100646433113    1.90363585301590    0.35175096362712
H           1.38701786702842    1.17567659560455    0.89606960126474
H           2.43758664687232    1.52842947586045   -0.17924694456106
O          -1.53896999912059   -2.14860281990493    2.16918404433084
H          -1.09248320952741   -1.36210640454289    2.50242617120847
H          -2.30542562039173   -1.83365922939515    1.63240749118715
N          -0.51034033899182    2.80683425138671   -1.14940736382054
H          -1.13798046911988    1.38720602355156   -0.79440853145864
H          -0.28434924642564    2.98726949155100   -2.11879746203007
H          -0.97466625594706    3.62541236346237   -0.77795335769660
H           0.37014555695765    2.68332549814363   -0.63714353555849
