    26
        -50.45025503  Gyration_radius:  2.47110977992 Dipole_moment: 4.444
 S           0.17011461571445    0.60395619058407    2.07875381126895
O           0.48950901405706    1.87222324566046    1.46455540481136
O           1.00442649421818    0.20085323200374    3.15408373378443
O          -1.30627767731281    0.61259277470863    2.53114446771740
O           0.14148858682845   -0.48219705671706    0.97710782681828
H           0.60414580425317   -0.18151659976746    0.08696810831176
H          -1.86912794537939    0.64622456839667    1.70313335867534
O           1.29942124672524    0.13955069846021   -1.15453525809729
H           2.18632620386517    0.17645125587744   -0.76570635145976
O          -2.59953621266035    0.74904540104299    0.27589382297306
H          -3.36932947921231    1.31593016826819    0.35651124279319
H          -1.93052184173289    1.25926826461703   -0.26888831941774
O          -1.69156885409273   -1.88195131900182   -0.59589819827797
H          -1.08477158867819   -1.72086703136606    0.13704605024112
H          -2.30123495772047   -1.13668420457714   -0.56661727791800
O           2.87711596324725    0.58364256452202    1.04651291527994
H           2.36086583108555    1.39439378137217    1.13703797961288
H           2.76699346201269    0.13348976770605    1.88988784118938
O          -0.70246723528062    2.08302019411511   -0.89301838002949
H          -0.23724480631249    2.25089824062657   -0.04915453161022
H          -0.09376930247734    1.52175361653473   -1.39122712566344
N           0.65913997282459   -2.12537413148466   -2.29984647945460
H           1.17708868632504   -2.95253385113506   -2.03187532922593
H           1.18274262434256   -0.73112003296639   -1.65716514929259
H           0.52872235729328   -2.14935980645705   -3.30306289208556
H          -0.26225095209674   -2.18168994096065   -1.86164127131172
