    26
        -50.47416848  Gyration_radius:  2.42065092447 Dipole_moment: 2.050
 S           1.86827209864342   -0.40235325285326   -0.59335825918897
O           1.65831174980670    1.03165496341389   -0.66463797487278
O           1.57856280874767   -0.93783454882957    0.72595558099879
O           1.18106505069239   -1.10737516291409   -1.66424267298077
O           3.41048631566724   -0.66885371907963   -0.83134984657946
H           3.46009043616000   -0.68208419948799   -1.78077130132935
H           0.13873826896547   -0.00538020031876   -2.33016271178356
O          -0.34352943714308    0.83092627071898   -2.51730812676084
H           0.29977520279137    1.50458074045407   -2.26690318937637
O          -0.02937269277947    2.27859673341779    0.97263596052919
H           0.69436234632370    1.94696145767246    0.39871220911463
H          -0.01665248082394    1.69509959799794    1.74908082420701
O           0.00823906936841    0.04592628513405    2.57567710972407
H           0.34321135044123   -0.22308513836767    3.43216211171772
H           0.63844803689574   -0.31972906767948    1.90953447213468
O          -0.32704598375668   -2.66589172997075    0.00116616166139
H           0.43350173751411   -2.20599735716183    0.40080014027733
H          -0.17756112148015   -2.55575106852226   -0.94377285876239
O          -2.09068772960936   -0.97715381176180    1.07308960807836
H          -1.58588869450962   -1.71323549926278    0.65593110902498
H          -1.51486313276822   -0.66333636170444    1.79085079052106
N          -1.95430150050735    1.16558494820305   -0.43002790292004
H          -1.28054638922551    1.74927148356740    0.15666391155162
H          -2.11120190919381    0.25561713149031    0.10999094489850
H          -2.82922238329220    1.65132831178211   -0.59027754608666
H          -1.45219098694015    0.97251319408655   -1.33943855379901
