    26
        -50.46166807  Gyration_radius:  2.63285698745 Dipole_moment: 3.320
 S           0.09756247334553    1.63978778005632    2.04309303346283
O           1.49865781890761    1.42459183428230    1.70651778498667
O          -0.73917774428773    1.81307370792941    0.86832090208580
O          -0.40540280938962    0.61567886437796    2.94294790418492
O           0.03453464964863    3.01499153370454    2.82889587391029
H           0.64660676012083    2.87421714653454    3.54460340440729
H          -0.47721592494192   -0.75926986370850    2.15988362837631
O          -0.44941046405750   -1.56986556877833    1.58141617443474
H          -0.13274338388950   -2.28139817885796    2.13981621821706
O          -0.08642283087304    1.61153429874471   -1.69874804100172
H          -0.34831594292224    1.96823472917103   -0.82692782940599
H          -0.89226514117949    1.30295211088102   -2.12112112927036
O          -2.07276841315142   -0.27560421250833   -0.22064892722000
H          -1.90631634127015   -0.94401630378173    0.45537904033363
H          -1.73904738793316    0.55321771421607    0.17391550786755
O           1.83254524317145   -1.91373966601659   -2.26933433193588
H           2.21813626301476   -1.65436133080318   -3.10693521162322
H           0.86643093381989   -1.80211016554745   -2.36870655187914
O          -0.85865822125431   -1.35849091610365   -2.35619855845519
H          -1.31506189720000   -0.94050791564111   -1.58958067735585
H          -1.46320789146100   -2.02252720121661   -2.68849411791200
N           1.15864193181316   -0.27267465758210   -0.24172718613168
H           0.49131552219950   -0.88962733280431    0.25835577221852
H           1.82450732157959   -0.85247048002341   -0.77451195783755
H           0.65498831303461    0.34951199359132   -0.92686586941723
H           1.56208714315017    0.36887207997522    0.48665514492230
