    26
        -50.43419112  Gyration_radius:  2.83785875312 Dipole_moment: 3.396
 S          -2.59791247144314   -0.57434293884874   -1.29841562010387
O          -2.33859708495762    0.74171176844287   -1.80902104443329
O          -1.56830919895328   -1.54115190433577   -1.43666690098535
O          -3.08679559094649   -0.46651043070014    0.16204901436590
O          -3.89669926195156   -1.11407474106516   -1.99426224297101
H          -4.50147622005955   -0.37708453635390   -2.05043556486338
H          -2.31686309021023   -0.12515234163074    0.73308666889209
O           0.06048231859214    1.38520790457053   -0.70421614756358
H          -0.72368901226751    1.39477415110953   -1.27403153509627
O           2.82599898190027   -1.65214938361735    0.85509007748202
H           2.37198336981914   -1.09087364405500    1.52327122833020
H           2.89552289321945   -2.52247055947490    1.24844495088901
O           2.04659319892185    2.16874363598564    1.05973871185566
H           2.86599177273744    1.90679689592056    0.63528196948372
H           1.35805130510553    2.09484377625106    0.38061485211747
O          -1.11437112668344    0.53171333293530    1.40465526461475
H          -1.38137881902647    1.30093302622894    1.91429661503483
H          -0.59173190162574    0.88677879130237    0.60645876667955
O           1.43961762641174   -0.06468897330213    2.53181945740884
H           0.50963342097528   -0.14697156925301    2.28443531953127
H           1.71865236839216    0.80584249381222    2.18836844428669
N           1.28480254857499   -0.77468388317845   -1.43281951725543
H           1.88317410792924   -1.14852850716425   -0.69540639636725
H           0.60569799674108    0.57648862530551   -1.02183236225633
H           1.79098149226425   -0.83136739747476   -2.30636534039037
H           0.46064037648205   -1.36378360151432   -1.50413868865820
