    26
        -50.46867740  Gyration_radius:  2.5111454618 Dipole_moment: 5.668
 S          -0.27481878373259   -0.79582569629911    1.95230099629628
O           0.40142204974671   -1.75280146640728    1.08378279780109
O          -1.30981786145955   -1.36972360743309    2.75996464183405
O           0.85448688255148   -0.26535230649155    2.96516659219813
O          -0.65920122216477    0.40484110748767    1.21868721594916
H           0.68785475929418    1.18864593704778    0.89529380849096
H           0.78208009573259   -0.87858747974929    3.68923492817472
O           1.55763418532479    1.60827429572064    0.66680714476207
H           1.97443124914393    1.78577906942611    1.51159689019192
O           1.80828481716114   -0.68251312207862   -0.83785553533514
H           1.34668485985292   -1.21650379195813   -0.14964966172603
H           2.03497315326244    0.14126396587921   -0.37478073553879
O          -2.06648154508082   -2.47121805267394    0.34774356937634
H          -1.09895800372375   -2.47324162150657    0.43138095013016
H          -2.36154970433660   -2.30030113619548    1.25071782515717
O           0.82511216335129    2.76505431738261   -1.70057626768206
H           1.61659635474599    3.16829098966121   -2.06014482417406
H           1.04281392600128    2.49561137223727   -0.78825103266333
O          -2.26377323630758   -0.08510672583939   -0.83916790598489
H          -1.85558975253820    0.29334625496519   -0.03609838448221
H          -2.38238677842072   -1.03046481027137   -0.60122932240552
N          -0.13675671863634    0.28979125267881   -2.30617724337681
H          -0.20505634869161   -0.01916637984253   -3.26906524647228
H           0.65109965395513   -0.21609391647637   -1.78443755469453
H           0.08964866267786    1.30248007031367   -2.24853152128919
H          -1.05873286772088    0.11352148040545   -1.77671212453397
