    26
        -50.45228975  Gyration_radius:  2.49593662491 Dipole_moment: 8.742
 S           1.29909832444298   -1.41294226915638    1.19088361791639
O           2.50097118167366   -0.65175555260350    0.95742057553679
O           1.45101954629726   -2.78349428348679    1.55575544351682
O           0.60686824250536   -0.71933069093485    2.52367645125779
O           0.28053035716266   -1.15016652052385    0.17591186354143
H           0.64958776696552    0.44836619323458    0.40123346792897
H           1.02422007159625   -1.21747444263162    3.21969359957885
O           0.65397777900411    1.41198443781200    0.60869080431459
H           1.20454203745541    1.47965445833510    1.39157537589457
O           0.35589521321234   -0.69874561686531   -2.46502830248971
H           0.25973104532611   -1.11891049251340   -1.59433904866613
H           1.19523007177001   -0.20366833407525   -2.37461581185718
O          -1.75071928267074    0.81690150517049   -2.40587223492151
H          -1.53374710022939    1.56326073600964   -2.96635013318174
H          -0.97314180407929    0.18469649567987   -2.48738894747211
O           2.52545998645691    0.59723670006103   -1.46268149838617
H           2.68671559849540    0.05030646631946   -0.67054633416771
H           2.16602224961422    1.42012298852910   -1.11833959467397
O          -1.99779941529408   -1.09954115878205    1.59280465706342
H          -1.79491514127036   -1.76860592805039    0.92999222299952
H          -1.15038324033566   -0.96125751190805    2.04922261018464
N          -1.95644070908462    1.18021737739147    0.19529064618745
H          -1.95252058213846    1.01955468082451   -0.85937494440262
H          -2.65906696329439    1.86081016135773    0.46236382530626
H          -2.10332845203876    0.26268346756630    0.70155803385431
H          -0.98780678168223    1.49009714326736    0.44846366511595
