    26
        -50.46621024  Gyration_radius:  2.53573506115 Dipole_moment: 5.336
 S           0.69523815809282    1.16309037326220   -1.12169847249319
O           1.59484875369152    0.02847860581353   -0.99015672460890
O          -0.65978125591437    0.73576648247610   -1.44285176229019
O           0.71840880772059    2.00591882087802    0.07356121038756
O           1.17768861379189    2.03505877593718   -2.32579449693743
H           2.08019721257669    2.27558013333749   -2.04167134755123
H          -0.04594774441443    1.32047034851131    1.28239629288733
O          -0.49852219055101    0.82663200453471    2.01986646112701
H          -0.39465818794426    1.37224692470651    2.80162970163040
O          -0.41176874838952   -3.22169979777706    0.58161171228313
H          -0.75821671059411   -3.58299255156151    1.39894167051122
H           0.29765113950813   -2.56788408125210    0.84859476932001
O           3.29863955110281    2.13212808591219   -0.75135764473691
H           2.62298868456349    2.39019077852334   -0.10824826994216
H           3.25183116568440    1.16668975797934   -0.77791499367314
O          -2.72533684240493    0.53094399083586    0.48295130118239
H          -2.08315246228618    0.60525734989167    1.21386504267313
H          -2.30766086035144    1.02079710556383   -0.24031776151465
O           1.16263943189521   -1.27993698990016    1.28017122004963
H           1.43677517318438   -0.86369133466111    0.43588653232988
H           0.59298947919445   -0.62290735209313    1.71197665282640
N          -1.81913399671715   -1.52873124336476   -0.87743775419245
H          -2.41379989367173   -0.93699504194191   -0.23508991231635
H          -2.36552896354704   -1.94804720092715   -1.62173945343076
H          -1.16534313823502   -0.79453422315166   -1.26607333595988
H          -1.28104514597982   -2.26182975152614   -0.33110064755595
