    26
        -50.47056503  Gyration_radius:  2.526574174 Dipole_moment: 1.011
 S          -0.66538844508586    1.26902708980881    1.19444718243138
O          -1.19337193800815   -0.08158338976100    1.00597747535304
O           0.69389958040134    1.26035328021131    1.67311167143151
O          -0.86265365782014    2.07694297089295   -0.00255935057911
O          -1.54173010563576    1.94278692319300    2.32926750015238
H          -2.35909722944024    2.20488705991157    1.91399395563316
H           0.73119396691614    2.06484981406436   -0.73938298398042
O           1.62954986215526    1.70035207773774   -0.85336625850194
H           2.01246083221656    1.76830466541757    0.02868149186382
O          -2.49315706152605    0.45373115368611   -1.36768507741114
H          -2.54155154512901   -0.13398415526718   -0.60471533031967
H          -1.94625700835836    1.19670877773531   -1.04876545693568
O           2.16679368048087   -2.47522823870210    0.58617173242757
H           3.10868234308125   -2.39552298239719    0.74131628959408
H           1.72274409199318   -2.13700839666797    1.40162585495269
O           0.84682446842499   -1.25653327222689    2.55194947868834
H          -0.08900856739501   -1.42874328467513    2.40931797804720
H           0.94181281126930   -0.30266187740714    2.36283591749628
O          -0.92784873788694   -0.93491418068886   -3.03286783892403
H          -1.62553518166529   -0.44930464908378   -2.53235041242374
H          -0.75056805730455   -0.41683393082235   -3.81910200235596
N           0.63791229228311   -0.80067291138562   -0.85165102944658
H           1.15579614720356    0.10741369391741   -0.95374782943249
H           1.27780848050813   -1.54718351643704   -0.49972411923912
H          -0.10432205494818   -0.64745428655772   -0.13517924202115
H           0.17501106329444   -1.03772843445279   -1.75759960651128
