    26
        -50.44497208  Gyration_radius:  2.53363314988 Dipole_moment: 8.982
 S           0.50331163354856   -2.71569133068331   -0.73727436018407
O           0.43194134632279   -2.31769127906638    0.65685199750375
O           0.36163325761245   -4.09529504692916   -1.00877489440335
O          -0.61768654284944   -1.88264301925723   -1.47341744427228
O           1.77215871556653   -2.16534879720085   -1.37350108967346
H           1.86230449871329   -1.15409869925294   -1.16966730543127
H          -1.34275891635102   -1.75574004679497   -0.79483581737906
O          -1.56617385497595    1.31488557187328    0.83078005083246
H          -2.35217658549587    1.83382176850684    1.00732554121990
O           1.81511169298116    0.29432406126399   -0.82111099217752
H           0.99740036082719    0.62216228816770   -1.26030651416203
H           1.63407821483441    0.29962915424803    0.14431581844711
O           0.99920754828334    0.04903982388776    1.73211957678561
H           0.09640359917028    0.36430312501211    1.84234810528984
H           0.92300884823961   -0.90366840848878    1.53196616555474
O          -2.07710081750790   -1.42865265338792    0.58841265509689
H          -1.33822150243430   -1.86628850530750    1.04207188222020
H          -1.98029201739594   -0.47619622043096    0.75342414218904
O          -0.60805117722636    0.89973802376876   -1.78955919476759
H          -0.77060610571838    0.00219599458004   -2.10477201907855
H          -1.12677790280530    1.00279599521528   -0.97603606010464
N           0.55328006263792    2.90752103822659    0.67610473987120
H           0.51256651782449    3.86666300415459    0.99696202724741
H           0.83291865077312    2.91386424938678   -0.29823365650665
H           1.27941878797824    2.43057972941195    1.19948399081344
H          -0.79489830255036    1.95979018909735    0.80532265506390
