    26
        -50.45859494  Gyration_radius:  2.52338543955 Dipole_moment: 6.323
 S           1.15596545436163   -1.34688179678372    1.32496781888182
O           0.23377757702748   -1.92188917120737    2.27026968152233
O           2.45637675239804   -1.93342062587053    1.24261919176600
O           0.45416279101734   -1.64184186690169   -0.13351722590349
O           1.15869383502930    0.11683653303396    1.34639611141111
H           0.03306702241636    1.25030109013166    1.50975368873328
H           0.25212726293485   -2.57217760560295   -0.10843723955536
O          -0.69096027276711    1.91562095319834    1.38637896980436
H          -0.37173217452634    2.73243318262382    1.77163315721665
O           2.83575838496403    0.07656381169200   -0.68266281537791
H           3.20620137765354   -0.79817795398021   -0.53203266421393
H           2.28044197071850    0.21535035825634    0.10821130517524
O          -1.97497664809684   -0.68751997772686    1.47531504028606
H          -1.22395702920573   -1.20842570600340    1.82934155459724
H          -1.80831094974187    0.22343985844801    1.74030928520320
O           1.39807000410662    1.19801258078866   -2.62776013262104
H           1.98346242673102    0.70514223350899   -2.00593463132787
H           1.86677763736799    2.00604163658064   -2.84034264082105
O          -3.07355310003585   -0.50993319436787   -0.97023499045703
H          -2.74363846351486   -0.71890822251011   -0.06842815468468
H          -4.02357064257421   -0.41949311236716   -0.89399339898262
N          -0.69091776594004    0.68728297406176   -1.04866734822407
H          -1.64156559468202    0.42645849063490   -1.36429837496342
H          -0.04747419393714    1.02367860759964   -1.79966016554093
H          -0.75744928302287    1.36022460084489   -0.26094286570540
H          -0.26677637868531   -0.17871768809152   -0.66828315621377
