    26
        -50.45980979  Gyration_radius:  2.49671521869 Dipole_moment: 4.225
 S           0.39380522910578   -1.83114720584979    1.18063930399081
O           0.33985888852412   -1.54479339944913   -0.25361390262165
O           0.48053518147557   -3.21299760578999    1.52266653824819
O           1.81139045135676   -1.19499700890779    1.64812035228934
O          -0.61522695975964   -1.06313708336402    1.89476392586118
H          -0.85898484983034    0.51970807604031    2.32522974106004
H           2.26240560135270   -1.98574319150867    1.92429973657934
O          -0.86314892889366    1.48842081078196    2.49851788400000
H          -0.86215296405410    1.58320172451093    3.45165379155632
O           1.06344663658253    1.26867612727968    0.66574069867330
H           0.54376328154419    1.59566845374961    1.42715558926891
H           1.31517804991292    0.36864797279000    0.91139999254428
O          -0.00361344779319    0.77178040767281   -3.33576290701106
H          -0.35699046501611    0.00721842149268   -3.79366110598624
H           0.83367143130068    0.46251694076869   -2.90214348199202
O           1.95613756630581   -0.11340159916043   -1.80958597976789
H           1.42592245045096   -0.74818094139460   -1.28310034077416
H           2.21555977901987    0.57667032689020   -1.19253163266079
O          -2.20583344881016   -0.98491157892544   -0.28739986651964
H          -1.33125125520339   -1.39247080436557   -0.46549944900807
H          -2.25064600713807   -1.01013626116635    0.67731092461923
N          -1.07444675407388    1.30960251838132   -0.96342390729298
H          -0.76066140542213    1.18768017215809   -1.96432245921856
H          -1.58818333546695    2.17380367037286   -0.83088433464906
H          -1.65957040986052    0.46597308128217   -0.69019245343589
H          -0.21096433560811    1.30234800571008   -0.35537668775536
