    26
        -50.47723504  Gyration_radius:  2.39959961682 Dipole_moment: 3.764
 S           0.92062582077785   -0.25267587163859    1.44447141983157
O           0.60159494795716   -1.37490861642315    0.56879076461055
O           2.24154228222896    0.27225870836241    1.21665537300458
O          -0.11462907332586    0.78491249617078    1.34021981400472
O           0.86178656864133   -0.78590492715196    2.91788708293400
H          -0.07404158636798   -1.00199716220037    3.03425323177895
H          -0.25319938824920    1.80151268397853   -0.00078242738233
O          -0.23652208844829    2.15998210732986   -0.91398104451743
H           0.70054577477528    2.10629354949818   -1.16532605784966
O           1.21302026384707   -1.03271633380947   -2.00485484271865
H           1.76985052238551   -0.23945082704395   -1.92478463857474
H           1.10842536008476   -1.34993308134803   -1.08387725607377
O          -1.86365414042126   -0.53821230918046    2.66421837921102
H          -1.32216372990199    0.09420435344784    2.13096719972251
H          -2.29595308981093   -0.02221097400263    3.34710792994988
O           2.37731370790862    1.31317760345555   -1.16370777655898
H           2.36494254425656    0.94652357703178   -0.24258570400305
H           3.24603713295506    1.70249828328500   -1.27737655577228
O          -1.96952430163442   -1.54700486876896    0.01434460564486
H          -2.36950130843458   -1.28475174712403    0.85156858385419
H          -1.01499383209821   -1.64915198425764    0.22679027439067
N          -1.20784010641601   -0.01578324848451   -2.02178232836762
H          -1.68582876664874   -0.56572103480390   -1.26041977190150
H          -1.77310194077835    0.03073443158111   -2.86128797593914
H          -0.95345211055821    0.94873267487741   -1.64571627573013
H          -0.27127946273422   -0.50040747279315   -2.19079201355936
