    26
        -50.44056094  Gyration_radius:  2.48603774067 Dipole_moment: 6.071
 S           1.92364452687774   -1.17584436142141   -0.32346076419332
O           0.77322764620902   -1.82289105570549   -0.87886221695615
O           3.14817324297831   -1.88045274004310   -0.26600252846902
O           2.12071352929638    0.18292739073691   -1.08612364681336
O           1.58245674321566   -0.68184974158858    1.11461075972648
H           0.84217036276880    0.00358201263886    1.08779414933244
H           1.29443319623561    0.35186764276814   -1.64380112080388
O          -2.07509721722008    0.50821269664778   -0.71174187629275
H          -2.99252747022005    0.76645782019598   -0.80243026678843
O           1.50867344016536    2.76872143946830   -0.29414890458937
H           2.14002429029148    3.35734305040055    0.12265499837414
H           1.99972103024587    1.98075689681514   -0.57953571143906
O          -0.21247454857098    1.16307769939684    1.09418067314605
H           0.28878447636982    1.89629647126963    0.69273370595104
H          -0.95024662630142    0.96661689914762    0.47630074371593
O          -0.82564016376070   -1.20120491698264    2.73891184198448
H          -0.83513557009199   -0.25125567113159    2.58308084819178
H           0.09037169184781   -1.47148104592344    2.62677899010103
O           0.02745021890921    0.99290607121299   -2.31072825383310
H          -0.78291319265533    0.71527464482158   -1.83208442213952
H           0.13065193244691    1.93514753229460   -2.14453663697348
N          -1.88427184019500   -1.92052165228115    0.09836595241671
H          -0.97883048979726   -2.13154720045778   -0.32060106612343
H          -2.06989863191705   -0.48768834690067   -0.43401262083907
H          -2.51888113485589   -2.67823876192921   -0.11449536833649
H          -1.74457944229185   -1.88621276345279    1.10715274166219
