    26
        -50.46702136  Gyration_radius:  2.60071888092 Dipole_moment: 2.030
 S          -2.05117041610202   -0.04234125016064   -0.38501286663703
O          -1.51430257672102   -0.68008637017420    0.80880727651425
O          -2.21109201511714    1.38468078805806   -0.26034822084940
O          -1.26945553437592   -0.41284913340069   -1.56377276500753
O          -3.49483142071264   -0.65963633518773   -0.58329193878908
H          -3.35634500599324   -1.56470202688437   -0.32198480341124
H           0.13558248396839    0.56611370678847   -1.74479396688911
O           0.95824265318034    1.04294759504474   -1.51429938271374
H           0.67458647167189    1.90126928723563   -1.16842901673658
O          -0.19898950024092    2.96125976626082    0.18080598474433
H          -0.98052022765350    2.36129447358514    0.06723688075083
H          -0.56092814037883    3.84903875705894    0.17423594461570
O          -0.08489332118829   -2.75648970808327   -1.37922441721832
H           0.28544619999477   -2.87374156385213   -2.25623528229737
H          -0.55143510849158   -1.88962431921388   -1.40759252859655
O           1.50090129872305    2.09622550631712    2.13553917819359
H           2.28811229647220    2.63417013635126    2.03927938861794
H           0.83783078825424    2.46473045341625    1.51746827990021
O           1.75737431493032   -2.84303940361116    0.57335199969121
H           1.11231837214373   -2.87921317014979   -0.17019552998552
H           1.41742211984271   -3.43983879962183    1.24161417549774
N           1.08437325813414   -0.24859624607953    0.82045158625163
H           1.38683493009091    0.43270959394118    1.53635990206233
H           0.05006004136816   -0.42403529952801    0.91999749750969
H           1.22164417096340    0.19085529166457   -0.12650142720965
H           1.56323385756277   -1.17110170954174    0.86653405141480
