    26
        -50.43914811  Gyration_radius:  2.53291638871 Dipole_moment: 5.319
 S          -0.69296002258197   -0.86923221242970    1.88792433442513
O          -0.44979610610279   -1.86148947061563    0.85766101098317
O          -0.18553738237353   -1.15972796958916    3.17458784163736
O          -0.08418324995187    0.46054755410933    1.33824062882513
O          -2.18522773632034   -0.54448672273161    1.96435359120471
H          -2.61464331546429   -0.36333977782783    1.05894598671983
H           0.88174326432379    0.12310908936139    1.09021431785773
O           2.06000810593987   -0.53366027409779    0.59612441300519
H           1.70133219184259   -1.40383520147290    0.39518434497302
O          -0.76527477445119    0.82407847125325   -1.37850988123393
H          -0.84694465790934   -0.09665486663718   -1.66139304111783
H          -0.52151118806528    0.80827046015194   -0.44123208926492
O          -1.52533586687061   -1.91531533964591   -1.51182364876541
H          -1.10202190380618   -1.99462216883853   -0.62404153672047
H          -1.60274290325399   -2.80524570041524   -1.85778836093392
O          -3.17306341726670   -0.10106485235892   -0.35581665737140
H          -2.68905013163861    0.65085354197947   -0.73190586014466
H          -2.87032911523229   -0.87080889916038   -0.87334069561384
O           2.07236814201033    2.50173307465217    1.05211779886113
H           2.61583332761584    1.86423009922695    1.52141237179738
H           1.16381893681617    2.31117559693931    1.30166138758849
N           2.18368305312720    1.02526891358723   -1.48078742785514
H           2.19543631885931   -0.02378125266787   -0.28289200872466
H           2.34843056308754    1.86619872863823   -0.93172424128199
H           2.84283237799214    1.00652101902089   -2.24738564636652
H           1.24313548970916    1.10127815968750   -1.85978694242848
