    26
        -50.45781175  Gyration_radius:  2.68573199927 Dipole_moment: 4.554
 S           0.67997160737917   -2.44902898660052    0.50786525666873
O           0.39561719213380   -2.62327005306860    1.90983665170383
O          -0.47312456559510   -2.17916785969838   -0.32094867900482
O           1.72783644657308   -1.43897351464612    0.28070283854071
O           1.28910133507956   -3.83057091511185   -0.00803530051638
H           1.79010221116357   -4.13543026037498    0.74299159261702
H           0.85769946902109   -0.46907681749186    1.20782010899338
O           0.21997386154017    0.08374456789948    1.72656845379414
H          -0.08234492437583   -0.53874428901784    2.39699202661966
O           1.35316641297362    2.38147283812147    0.74172907534084
H           0.97103574688580    1.61340068419012    1.20477062387467
H           2.00373755117644    2.75743157115051    1.33633764959402
O          -0.92217973647136    3.44859442233422   -0.38103563890001
H          -0.70059917440033    4.00642777650888   -1.12783251599423
H          -0.08110408613329    3.22398951086280    0.05920185086640
O           1.26637801380417    0.45650764985352   -1.49803810045859
H           1.66101300826204    1.18266707428690   -0.99961694001173
H           1.49709686099468   -0.35403273739015   -0.98819397502701
O          -2.78147492546620   -1.31614236516826   -1.21796128365436
H          -2.84386164152357   -1.65541027404065   -2.11249147987921
H          -2.03074134794633   -1.79875485665763   -0.80934700062788
N          -1.19058553642017    0.74025274137797   -0.53994502104992
H          -1.94691404591023    0.10720162660272   -0.87932804458511
H          -1.42303790924436    1.74674430395066   -0.55308576887023
H          -0.93095535261277    0.45671958263499    0.42298144369515
H          -0.30580647089598    0.58344858948936   -1.10193784371744
