    26
        -50.47206982  Gyration_radius:  2.39718592766 Dipole_moment: 3.415
 S           1.21768013181416   -0.82524042793840    1.02622093434384
O           1.03951237809661    0.60502455966557    1.21010394154650
O           2.56807157238834   -1.22834303607309    0.76105648859179
O           0.82675213271637   -1.49981378737427    2.42991130568668
O           0.23405608316343   -1.35608888414417    0.08354405365787
H          -1.02875860946577   -0.94902750923355    1.13280826414967
H           1.65509397547214   -1.86577689772793    2.72289440387598
O          -1.83071019404591   -0.68222739257437    1.62485040274758
H          -1.63981365049625   -0.88817395577887    2.54149185310807
O           1.14181522900174    0.09506049087692   -2.02271585227651
H           1.91020549596381    0.58801914378627   -1.65397621866275
H           0.95645991689232   -0.60496341475753   -1.37582652735475
O           3.04600687560847    1.15304258988966   -0.48797497833236
H           2.39293194449567    1.31069103333861    0.21235566723092
H           3.43645869574516    0.30536904461310   -0.23757036934667
O          -2.25637431290921   -1.30777213506734   -1.14708435395720
H          -2.69401886668818   -1.22253551207357   -0.29194614870159
H          -1.36434292896308   -1.61996682250074   -0.92961923384680
O          -1.25476710520002    1.85101176982612    0.78280709474649
H          -1.77523608878546    1.13078821522908    1.18027960837548
H          -0.33396213701739    1.59296779861300    0.99786777378135
N          -1.26378648980405    1.10807813290356   -1.73556245341398
H          -1.64146969340053    1.72590502338326   -2.44438408170035
H          -0.25708138928102    0.82879671220004   -1.95096135219524
H          -1.28379955442003    1.54809347090857   -0.76115734717461
H          -1.80092341094148    0.20708180000776   -1.66741285487074
