    26
        -50.45236320  Gyration_radius:  2.54445079433 Dipole_moment: 6.900
 S           0.57201747110553   -1.57237819337455   -1.17907305283571
O          -0.71524261934100   -1.79172766804919   -0.51911557278996
O           1.12161349930619   -2.67725611983980   -1.88101875433460
O           0.21092791983312   -0.42621640993012   -2.27520501505510
O           1.50556539827857   -0.89144743356934   -0.27507674036328
H           1.36077429789412    0.69567578816077    0.19660013098117
H          -0.67512368607014   -0.15861973495103   -1.99422003198709
O           0.99084149929776    1.57791548337090    0.43261231519286
H           0.94340410453315    2.06353321217920   -0.40295979476279
O          -1.85695840170902    1.27952029969373   -1.56443351604393
H          -2.45390953803099    1.37152150936122   -2.30898275558777
H          -1.12840314364295    1.89842236245367   -1.71725214553270
O          -0.83533418459691   -1.02193838943613    3.35309878997995
H           0.07466437480761   -1.25466862821958    3.04818427784577
H          -1.29714894620153   -1.85863142576197    3.43049537360659
O           1.50057700339388   -1.65525865068842    2.25414926471927
H           2.31478967935605   -1.26893701291860    2.58135632380145
H           1.48516899210840   -1.46182947297726    1.28988681499616
O           0.71747719700341    2.24045854317669   -2.27421245022628
H           0.77144390312688    1.27501313543732   -2.41422809089592
H           1.39470718566236    2.64035231645818   -2.82169714925932
N          -1.22225626729300    0.21798982527667    1.01862998724032
H          -1.21899959809946   -0.13430909172215    2.00590301345693
H          -1.04967476487279   -0.63347079918912    0.38551099449223
H          -2.09485582928151    0.66345697295076    0.75502133547847
H          -0.41606551593692    0.88282960181687    0.87602644777395
