    26
        -50.46557661  Gyration_radius:  2.46422645613 Dipole_moment: 6.096
 S           0.23061833386197   -0.94535645249429    1.50626226526259
O           0.69854614958585   -0.01920065115272    0.46227974597169
O          -0.99015215012151   -1.60724168485108    1.10532923148673
O           1.34131786829620   -2.06236479570245    1.60517196056723
O           0.15338683612478   -0.26966739998824    2.78661107953464
H          -1.06511660652063    0.73890761509077    2.21035195286387
H           2.12791209320805   -1.56366029590433    1.89917495777894
O          -1.84836952860951    1.06639315168935    1.71950537639362
H          -2.46462591316561    0.32904052585494    1.75974741256552
O           1.15025283571451   -0.85907278432781   -1.91152378449923
H           1.00084351867108   -0.57050347453327   -0.96663111234625
H           1.96408836531051   -1.36469130544802   -1.90639488156396
O           2.79352759061757    0.08833831432705    2.19905677089670
H           2.32769361741142    0.40828435427123    1.41247795813165
H           2.16552075193624    0.23571749335769    2.91799295106135
O           0.58265448849456    1.73365041080800   -2.52513649502846
H           0.45174363786424    1.80146022423797   -3.47235296755801
H           0.93901096253862    0.83821900507379   -2.35838176937458
O          -1.56261287575584   -1.28874918830444   -1.42899079385268
H          -0.69028710206712   -1.39203139350345   -1.83918886835163
H          -1.42906447313877   -1.54901169547844   -0.48484867136381
N          -1.58496003615685    1.27790130146978   -0.94372986890644
H          -0.71171225402061    1.62731661829831   -1.39175146607764
H          -1.66889039354557    0.23382826329119   -1.20645148100066
H          -1.52054720454211    1.30251902280834    0.10728230853770
H          -2.39077850194436    1.80997480103582   -1.25586181134986
