    26
        -50.46846863  Gyration_radius:  2.4336201123 Dipole_moment: 3.937
 S           1.65312005456234    0.50196098997671   -0.62783690622285
O           2.39902997325841   -0.70784742571355   -0.34153793230945
O           0.36296867256948    0.27033189661506   -1.22872517846004
O           1.55799875313264    1.37491693681405    0.54166228353999
O           2.51452297494758    1.29548328912365   -1.69738797271370
H           3.39525169337899    1.17993543092957   -1.35692848967347
H          -0.00588232852940   -1.45789054684052   -1.39323471776965
O          -0.51018575138503   -2.28719642238641   -1.31077508382499
H          -0.16277540151658   -2.70586416075665   -0.51427681122048
O           1.11570446411547   -2.55437781978486    0.97048596816434
H           1.65903804020910   -1.92420480614224    0.43372663665709
H           1.73862138275595   -3.11195653781525    1.43897665903782
O          -0.53860119429766    2.92916327873799    0.31653482465328
H           0.27844788474838    2.37524540658456    0.29530839050616
H          -0.37679822063583    3.60236646976178    0.98020652041683
O           0.01099151803283   -0.28261735310293    1.96096879446278
H           0.66470862086186    0.32599921472949    1.56412172717580
H           0.30463423510619   -1.18161537227562    1.72026823038675
O          -2.33298051732774   -0.35401210619013   -1.65585772972896
H          -1.62695581085951    0.17067249346765   -2.05320716641237
H          -1.92491484885620   -1.24056535731339   -1.56313737597390
N          -2.06459158739824    0.75537677732222    0.71624116399181
H          -1.63062195546248    1.68912153629589    0.52106153085120
H          -2.24073635779824    0.27448239440521   -0.22224703759352
H          -1.32087594892356    0.21676491158638    1.25166883603933
H          -2.91911833472045    0.84632688196361    1.25392084601530
