    26
        -50.46293963  Gyration_radius:  2.7211127903 Dipole_moment: 5.518
 S          -0.57279713532134   -1.74825604656963    1.71480121848761
O          -1.76420895726684   -1.24591093836310    1.06098632483464
O           0.54408534308922   -1.92202510793491    0.79794803290220
O          -0.21224830807822   -0.97204218889725    2.88808058196515
O          -0.93472358517108   -3.20809161643677    2.22217102766157
H          -1.77093822597677   -3.03681734405039    2.64067077381620
H           0.15527505926823    0.52217101351057    2.52347991980350
O           0.38959865059134    1.44624729959172    2.23324493689846
H           0.50719655731107    1.94914632477941    3.04051222772077
O           2.05063002001075    0.25901321710887    0.38289914565038
H           1.67818357762798    0.83599801547485    1.07039779509918
H           1.68947328840889   -0.62614006790918    0.59169518563027
O          -1.52559070078069    1.24607484576412    0.25280718296078
H          -0.94246147089047    1.55346282999900    0.96668900565750
H          -1.77840477725441    0.33422017260750    0.52554461723419
O           0.32691787876446    2.57945426187266   -3.54340667289755
H           0.88939843688157    3.34997942627819   -3.44254254749011
H          -0.56558526517528    2.89181200918895   -3.70875452237280
O          -0.07768146763708   -2.10775362558348   -1.74409935636225
H           0.57302984532784   -2.72279771756557   -2.08667426056510
H           0.03576236534478   -2.11984172936388   -0.76448947249917
N           0.26620949284269    0.55989548635357   -1.55588222555800
H          -0.53670556353269    0.88718659736170   -0.93923965222698
H           0.39163100462523    1.18476567040270   -2.35746776610125
H           1.11253054313532    0.53219974616907   -0.92436152980295
H           0.07142338397960   -0.42195053394439   -1.84500997053579
