    26
        -50.44672664  Gyration_radius:  2.50728314516 Dipole_moment: 5.285
 S          -1.64762359313654    0.52116705396743    1.74463519293788
O          -2.33262424571454    0.47024374230487    0.47241650740302
O          -2.42178852171656    0.25616165941693    2.89826269323932
O          -0.42784795508078   -0.45280765777633    1.64337311778964
O          -0.94141958888909    1.88065989085937    1.90405834239293
H          -0.28886789764819    2.02171809128006    1.14867326998581
H          -0.70650056268676   -1.17015626582526    0.99282322555476
O           0.83232159535962    2.19954665582058    0.07032869320174
H           1.28731001441355    3.02983034773965    0.22121189861442
O          -0.25052054636433   -1.17845873989960   -2.40078005581655
H          -0.53510189952004   -1.37071767755837   -3.29486020848351
H          -0.49860876254809   -0.22708890632962   -2.22277532483465
O          -1.43062547580991   -2.00789242452675   -0.11835671235337
H          -2.19662239889654   -1.41761770891986   -0.09063656738069
H          -1.00232874862451   -1.83000016105863   -0.98448470622710
O           1.78241726501801   -2.00577263310039   -0.71243612040554
H           1.24354592064249   -2.60467618005491   -0.19078324110237
H           1.21327523641995   -1.70239658177855   -1.43702306221611
O          -1.01008377539209    1.22353366878563   -1.73826300606329
H          -1.63824925274516    1.02111476576519   -1.01811959092294
H          -0.28020359934348    1.69058762890513   -1.30560970350369
N           2.33928681727598    0.28498196586317    0.91147837314036
H           1.83380427644449   -0.00571727999285    1.74086355479433
H           2.28723962245815   -0.49680073542261    0.25352754229467
H           1.47906304569094    1.44385267513785    0.35579534335990
H           3.31075304039253    0.42670480639212    1.15668056460535
