    26
        -50.44468097  Gyration_radius:  2.5536996749 Dipole_moment: 5.101
 S           1.71576651867621   -1.77652740594422    0.12178426113447
O           1.27937336688450   -1.49860356299677    1.47212186966838
O           1.80255444586718   -3.14271731357796   -0.24424047132029
O           0.74304829857886   -1.02504498777663   -0.85222736424331
O           3.02156851596828   -1.02597936014477   -0.15904440809982
H           2.92920772815169   -0.16103310981808    0.35471707301918
H          -0.19867451493898   -1.30948235320279   -0.67577619114150
O           0.07578679756659    2.02118553159231    0.77139562935591
H          -0.09814969404723    2.94560847526222    0.95261712625099
O           2.47077670053846    0.93648882779034    1.37695143927638
H           2.17272638244366    0.27547862959703    2.01451643500998
H           1.65479854674600    1.41114851807542    1.10316799922167
O          -1.04399844022001   -0.22609235265647    1.89472148469087
H          -0.20837304330574   -0.72032168653437    1.98445444430318
H          -0.77712669920145    0.64896734711527    1.55766991000551
O          -2.92662560053218    0.27810498040520   -1.68378224642827
H          -3.65955515239586    0.54520885031123   -1.12665563964137
H          -2.55383679278445   -0.51900300358988   -1.27999968051638
O          -1.65743215522975   -1.69132488122708   -0.13380462167725
H          -1.57398559571142   -1.12088501589099    0.69299280433381
H          -1.65373374262255   -2.60535684490345    0.15681740003354
N          -0.31596602994115    1.58230669636926   -1.77203297967206
H          -0.11117637307224    2.25462072727129   -2.49989212353176
H          -1.28036900017885    1.27277459776723   -1.88768550423564
H           0.27215691764870    0.76842531807052   -1.91594143334498
H          -0.07876138488622    1.88205339862860   -0.22284520245537
