    26
        -50.45687615  Gyration_radius:  2.47775513102 Dipole_moment: 7.791
 S          -0.45927845251505    0.11934961484331    2.44859543177519
O           0.58842275880192    1.11332494047213    2.47881806237221
O          -0.92464292011554   -0.36529624237428    3.70895603051529
O          -1.75381993755773    0.85857585847700    1.80204557707059
O          -0.14732765042203   -0.93433876642998    1.46904009913483
H           1.28133493732939   -1.08561632269441    0.82843776455743
H          -2.26557360207208    0.85356596042882    2.60245996490407
O           2.12329854319069   -1.23676859501524    0.30800788349714
H           2.59618253623361   -1.92522459790405    0.77696315850474
O           1.78652581965846    1.55649052796079    0.22061363112636
H           2.28218671461168    0.72821068275693    0.19687536506115
H           1.31005136761459    1.51734729370089    1.08796976678441
O          -2.28556229086972    0.87939517171233   -0.93339864246072
H          -1.46218543680823    1.22708257307158   -1.31263326313185
H          -2.22933615168500    1.05574079022596    0.01639623923013
O          -1.58147710662342   -1.65885554228839   -0.60867069693803
H          -1.17368693039762   -1.51551290031475    0.27644246145155
H          -2.06367387560237   -0.81687960555846   -0.79133625516013
O           0.27412282672560    1.51782813628693   -1.85677728996197
H           0.48338841611950    2.29101537624326   -2.38145882742125
H           0.82474662087674    1.59578576284082   -1.01372577422418
N           0.57912398544159   -1.16631578154533   -1.89841571582510
H           0.77993649297457   -1.69339851569220   -2.73988132946167
H          -0.37329185267565   -1.47152708552298   -1.42542689993689
H           1.31385897873969   -1.29722366079695   -1.16913827633672
H           0.49667620903133   -0.14675507288689   -2.09075846513075
