    26
        -50.46786762  Gyration_radius:  2.43507991738 Dipole_moment: 4.832
 S           0.12965222525221   -1.60834894456363    1.11987500411691
O           0.87173006003003   -1.28580292159493   -0.07756090077613
O           0.86066516022296   -1.47488976117511    2.35282640871798
O          -1.16667758837247   -0.92214093909694    1.14632684471282
O          -0.22745759336525   -3.16037823004755    0.99136304996677
H          -0.23823858017612   -3.44678209146159    1.89863366297365
H          -1.35674133518468    0.64621750334321    0.86182757920404
O          -1.52074149241033    1.58678398398518    0.59161394847418
H          -2.15943685091274    1.93213794524375    1.21685395628427
O           1.15819660944408    2.42190547746117    0.26448828584714
H           1.66250744051191    1.89533619958612    0.91791128196371
H           0.22601970727437    2.28851263077495    0.48757730826771
O           2.42390720790438    0.60319212467037    1.80519927702243
H           3.10081378566286    0.18880092336866    1.26644358725347
H           1.84896769523646   -0.12659700874422    2.10914211076092
O           1.35606823565717    0.75358163063171   -1.75199042774235
H           1.37117582524146   -0.06058228053767   -1.21303737365719
H           1.43602692440120    1.48642839762902   -1.08501985096800
O          -1.58393022715468   -1.76017673200069   -1.29768938232769
H          -1.59462206636468   -1.53119731103624   -0.34318333294569
H          -0.73805604808511   -2.20599199517904   -1.40752523587566
N          -1.19909889102010    0.77284562964706   -1.99810665072187
H          -1.48762984186949    1.27282332096649   -1.13950897157887
H          -1.44707442001508   -0.24713670734200   -1.86476371511054
H          -1.62652720127383    1.16807193463549   -2.82723884995787
H          -0.09949872063397    0.81338720083604   -2.02445762390982
