    26
        -50.46787760  Gyration_radius:  2.5493548254 Dipole_moment: 4.203
 S          -0.20656747815947   -0.67467194234850    0.83408426398133
O          -1.07084129921568    0.50041184929544    0.78747650878300
O          -0.55575634484907   -1.61698321896747    1.86062877734755
O          -0.40934718337438   -1.39323593763859   -0.57777891040225
O           1.20223134787675   -0.29888104226344    0.82649641951173
H           1.65904234390099    1.28383991393112    1.01469207190193
H          -1.41974225944120   -1.40535396203392   -0.61673334241665
O           1.96627040708735    2.21979801689286    0.97059792029120
H           1.88526484420907    2.56658191689532    1.85979500877781
O           3.22657358625418    0.26270359764679   -0.83288652552295
H           2.71466163630470   -0.20619671306054   -0.14712095268515
H           3.41060226285687    1.12576246073366   -0.44535428421296
O          -3.00366039759690   -2.58276051560638    1.83629495615511
H          -2.10204201892872   -2.21947910999939    1.99066033005212
H          -2.91696738845452   -3.53535899199098    1.89679140914849
O          -0.12094847949619    2.38795459745967   -0.74421471720224
H          -0.62814290530913    1.78308701340847   -0.14877344723878
H           0.64466722624041    2.65337906097897   -0.19970155257796
O          -2.90957098680289   -1.08022092539883   -0.35598958150242
H          -2.66960943045109   -0.25474299220781    0.09503024302407
H          -3.17375615585990   -1.69226693866492    0.36694745284800
N           0.89751549053574    0.43063553438794   -2.09145079011161
H           0.40471568000623   -0.36867245059205   -1.64138417809000
H           0.80846018423917    0.39927551988954   -3.10143756422201
H           0.45997652900357    1.32987966437406   -1.66139731775896
H           1.90697080949685    0.38551558504322   -1.77527220791274
