    26
        -50.46436309  Gyration_radius:  2.40170847313 Dipole_moment: 5.371
 S          -0.07982650964988    0.93226021472901   -0.84961251700885
O          -1.49049571533072    0.82836049863564   -1.22642023664182
O           0.77645376521875    1.34060853851253   -1.92699268570470
O           0.00179602371339    2.02239378160183    0.26544742520370
O           0.37008998948383   -0.33349583388476   -0.24109600911455
H           1.77033235846525   -0.46450362205478    1.03035728636439
H          -0.18018115650104    1.57923827416282    1.13195883040144
O           2.19848137017040    0.06655056099070    1.71781261637958
H           2.59863077494380    0.79470458960933    1.20336136353490
O          -0.00002343857064   -1.78823204850432   -2.41786382459105
H           0.18701184825106   -1.19247348149892   -3.14624484253374
H           0.33570902189986   -1.32855698679865   -1.62210719377618
O          -1.27162706441902   -1.62831790586384    1.37307638458408
H          -0.53854766731943   -1.22213475255837    0.86176484879110
H          -1.40606586698310   -1.02370478011854    2.10838426835801
O           2.77547761808021    1.89555215992171   -0.22182752355384
H           2.14714799423679    1.64773481157580   -0.92708624617559
H           2.59749153622253    2.82088574068689   -0.04261441631262
O          -0.15447842939833    0.81831158735244    2.58484626515854
H          -0.06075747642660    1.45871388655187    3.29248300697598
H           0.76743359814029    0.47742866791582    2.39740680693002
N          -2.30937816461769   -1.57407195397913   -1.07378276085052
H          -3.24672681218894   -1.82594712822482   -1.36538993441827
H          -2.11441022699963   -1.80262039375604   -0.07025561244971
H          -1.57062799033041   -1.99055881758384   -1.67883540450029
H          -2.10290935976922   -0.50812560759464   -1.15676987511162
