    26
        -50.47411079  Gyration_radius:  2.41823835608 Dipole_moment: 2.952
 S          -0.91122428491546   -1.35132923214013    0.33015333904536
O          -0.85598174379880   -0.98084403502963   -1.09032841331256
O           0.06064586937826   -2.35282226994331    0.67487662193487
O          -0.76087268333080   -0.13660066335613    1.15598206333768
O          -2.32997119898108   -1.90630157255103    0.61414626801418
H          -2.92167625595635   -1.13966167266917    0.43727127356841
H           0.71847231963970    0.38857231779366    1.53861750341106
O           1.62529370146244    0.76340236598277    1.67579122597450
H           1.66392029194625    1.03633839926984    2.59340291483313
O           1.34635935631981    2.09540671056224   -0.73695069730431
H           1.57280272644822    1.85089593323010    0.17696230526448
H           0.37620027206193    2.19896019600172   -0.74891889337898
O           2.57074912985540   -1.53053628589433    0.45549363772425
H           2.51931865377835   -0.76279015200484    1.04856122379515
H           1.73616442607947   -2.02391666715341    0.61369292845866
O          -1.37928433789368    1.61525329639532   -0.64377473263125
H          -1.36063190425372    0.96611823971409   -1.35995477086611
H          -1.12421071942755    1.07208137942103    0.14128349726433
O          -3.66045323373532    0.36270747289753    0.28805762874153
H          -3.80778334117360    0.67989135185808    1.18192487663606
H          -3.03042945269848    0.98468260726033   -0.12389588001457
N           1.60798362758411   -0.36638790226812   -1.67863055314382
H           2.15953096043303   -0.87777784054602   -0.91766195258281
H           1.96538707317142   -0.56017373984975   -2.60694065852912
H           0.60440301329769   -0.69477158932808   -1.56685703783211
H           1.61528774477197    0.66960335240856   -1.45230371841640
