    26
        -50.45896638  Gyration_radius:  2.53274002168 Dipole_moment: 7.798
 S           2.14453736193768    0.39947135192080   -0.68251932700175
O           0.88082074304471    0.20260466775260   -1.43116611846896
O           2.91942822129833    1.49840264132237   -1.15423672850476
O           1.81704173456209    0.50190632048917    0.75092959707242
O           2.96705781058801   -0.92104555310402   -0.85846608986141
H           2.33021893161149   -1.65316459365397   -0.79308731485558
H           0.64410078444967   -0.06557293421971    1.58451055788330
O          -0.20163993758170   -0.27448478059160    2.08443760274780
H           0.01785727405267   -0.17814308371289    3.01194364726663
O          -1.64743026533355   -2.04701970505055    0.66357911215717
H          -2.04915829038209   -2.70875903349818    1.22857638256381
H          -1.12061507053437   -1.45901334942819    1.24366175193206
O          -3.09502686070103   -0.24029212602185   -0.85661585141548
H          -3.11308082630477   -0.52762726698615   -1.77095547736031
H          -2.67275049750009   -0.96097841860433   -0.35211611682561
O           0.68075817373444   -2.38075789994881   -0.95949073325004
H           0.58280181961258   -1.49699472627327   -1.35790145811537
H          -0.09622471589245   -2.48857724047327   -0.39481638117340
O           0.97396211292624    3.02804415520742    0.22662759228835
H           1.57554377783580    3.26413367451944   -0.48533596275727
H           1.38414653655272    2.23183495982902    0.60579268695332
N          -1.02179381216977    1.27727885602459   -0.05710916574504
H          -0.74339445319232    2.26773402084618   -0.01821470565673
H          -0.92005421167219    0.86329517292461    0.88232724353177
H          -1.96175840800459    1.05682891910152   -0.43118833438807
H          -0.27534793294416    0.81089596162562   -0.67916639900773
