    26
        -50.44213744  Gyration_radius:  2.54745063467 Dipole_moment: 6.250
 S          -1.86674362704293   -0.84757807042341    1.39752873966454
O          -2.56824399873109   -0.26172226481331    0.29328667733399
O          -2.21242510232879   -2.17296774694859    1.76614353550830
O          -0.32090582764905   -0.78722671740773    1.06754245223117
O          -1.90121228281664    0.08926749136687    2.61535719678481
H          -1.51827092717298    0.95185712664202    2.28744697352303
H          -0.11311188747831   -1.38824646740128    0.29131045462050
O           0.28143252110037    2.10562997358081   -0.81218751745589
H           0.10478653960782    2.91107989753822   -1.29954735178277
O           2.01239855883244    0.67247387217512    0.76948099522862
H           1.59733002078312    1.28134632292289    0.13712496180104
H           1.27639542929646    0.16293535502676    1.13810797611346
O          -0.65826284771968    2.17438144605109    1.72077148825252
H          -0.42093253494621    2.13623590464739    0.76671628055650
H           0.17576121266633    2.18430536360574    2.19827007655646
O           2.86840695527397   -1.32677632034065   -0.77774474491049
H           3.27084499077354   -0.93049263967091   -1.55178735955669
H           2.69451836300557   -0.58775701500212   -0.14527490664439
O           0.42406240867576   -2.30494137835951   -0.88492130657233
H           0.41417703378415   -3.20506384564050   -0.55306539356374
H           1.37516399035052   -2.01711014479740   -0.90255896326698
N          -1.00959101545617    0.16682034075068   -2.00083563846954
H          -0.19334067626565    1.35858657762668   -1.30616292555515
H          -1.71317447815979    0.03290495508931   -1.27070579190028
H          -1.49945597963057    0.30861039787941   -2.87527009060918
H          -0.49960685861769   -0.70655240405811   -2.06902582796821
