    26
        -50.45625885  Gyration_radius:  2.5105309424 Dipole_moment: 2.849
 S          -0.40122484250509   -2.01101834117120    0.35203518333695
O          -0.84033235000033   -0.71241758423217    0.89802692050702
O          -1.41310606693526   -3.01247306665694    0.45048554522790
O          -0.22194513027505   -1.70306986030776   -1.24152058307581
O           0.93149036876619   -2.32836432810775    0.80047165446711
H           1.60291622882016   -0.93879773862441    1.24063998625331
H          -1.13407595737993   -1.53766122218418   -1.52557415674136
O           1.89218374736032   -0.00676385611994    1.43206716001970
H           1.45642741258863    0.23867524071180    2.25023467555636
O           3.58394224110071    0.72362838532826   -0.75242001013620
H           4.38457439456350    0.22571252480663   -0.92069730542991
H           3.28192766253637    0.46763979052915    0.13047227017291
O          -1.18488409678886    1.79821693255071    1.65588210270102
H          -1.89488174614360    1.82579323774162    2.29866242788715
H          -1.01061041119172    0.85213880920233    1.48175040295678
O          -1.50794393209630    1.93977713370855   -1.03018451076730
H          -2.09843355739727    1.18738816286919   -1.17061058121442
H          -1.52238689128089    2.11462073970785   -0.06757956898434
O          -2.70939600969409   -0.70257843081447   -0.89048105377915
H          -3.33638535679497   -1.41416081213607   -0.74546064882485
H          -2.13642735245966   -0.69364445921461   -0.08979980486704
N           0.85887350120461    0.75946097373237   -0.93235317775972
H           0.61727093164455   -0.20186998345867   -1.23632377397346
H          -0.00297724044518    1.36582510251265   -1.06041658383889
H           1.10641012173860    0.67007096667856    0.08293791510788
H           1.69899434106590    1.09387171296727   -1.41024446481755
