    26
        -50.45980647  Gyration_radius:  2.65328300545 Dipole_moment: 3.595
 S          -1.31010156883608   -0.63121347564396    2.14388769792489
O          -1.74149370744667   -0.66848749395555    0.75872261113158
O          -2.34967603477820   -0.50764379733226    3.11569294051883
O          -0.62903766825593   -2.07091109786015    2.42375498645943
O          -0.20800982586948    0.32998930042374    2.28999536836836
H          -0.36932918168438    1.40216431488664    1.09775560482305
H          -1.10236867971605   -2.32643879063501    3.20812395042709
O          -0.43734703258498    1.99479918418016    0.30540168798637
H          -1.21763893954744    2.53049939408302    0.45173407067239
O           2.36037393008182    1.54367364945281   -0.13339261194147
H           2.37539225961052    0.68199276924464    0.29957175353772
H           1.51662399555122    1.94358383970076    0.11736401361452
O           1.32710651269219   -1.03913700538197    0.71403742724418
H           0.79321534720190   -0.52098541739431    1.36589350885606
H           1.18707117127483   -1.95413264123773    0.96737364409121
O           2.09053226448672    1.10263448327364   -2.76216029009022
H           2.37644381389364    1.30712568146397   -1.84185046968844
H           2.22988074508843    1.89941308528405   -3.27426742025782
O          -2.08307408408842   -1.71747237536010   -1.62009772390860
H          -2.04183805592311   -1.49199270442721   -0.66514329173776
H          -2.98681138105772   -1.54795344795506   -1.88967399971051
N           0.03832499439075   -0.05285852438870   -1.44846618069619
H          -0.73275568428366   -0.66126539910357   -1.78430150768194
H           0.68684229357710    0.28057700714895   -2.18556320143483
H          -0.35277322083965    0.75758471688024   -0.92814825334496
H           0.58044773705659   -0.58354526534741   -0.72624429515797
