    26
        -50.43730212  Gyration_radius:  2.77582861798 Dipole_moment: 5.722
 S           1.83609817196999    1.20040528439150    2.26111603729099
O           1.06011621274850    2.31707864487315    1.78500449481577
O           2.83540607516124    1.44027173453626    3.22907919882286
O           0.86452482536177    0.11483427867703    2.81199253141856
O           2.45362712735042    0.49647917297107    1.01061464899963
H           1.99847775562198    0.82917207822765    0.18725311557135
H           0.18187572983859   -0.13695424343989    2.13388596720382
O          -0.88269598118917   -0.75484651803587    1.06728345582098
H          -1.19764427385751   -1.53309373098856    1.53056870397111
O          -2.65299216157879   -0.34492441224200   -1.13647416383159
H          -2.18694178155754   -0.53155003490161   -0.30758112588757
H          -2.48755819543333    0.58216585544533   -1.32618276538719
O          -1.41280040851043   -2.28504675734207   -2.62796423582462
H          -1.94021906500572   -1.58423174423033   -2.19851371883062
H          -2.02678541313031   -2.80671726229088   -3.14539024852076
O           1.21872838128677    1.37154179239969   -1.11179538696690
H           1.61664559447236    2.21351294357301   -1.34167468288649
H           0.31781408058717    1.58431472380927   -0.74809715274987
O          -1.00335859699010    1.91487027113528    0.19739917298110
H          -0.40491339681655    2.33615307403632    0.84529744174713
H          -1.24961761723632    1.07967743116908    0.61534958439926
N           0.67229654679661   -1.54096357806329   -0.79710248397312
H          -0.22115564687834   -1.10158874442257    0.31409846585022
H           1.44179299509875   -2.13636631915226   -0.52193944506641
H           0.11289270379042   -2.01857631547091   -1.50136293747729
H           1.05638632811596   -0.70561762462486   -1.22486448152035
