    26
        -50.46758605  Gyration_radius:  2.42053668524 Dipole_moment: 2.929
 S           0.54302411407165   -1.11495035681729    1.28762275725830
O           0.74329246434468   -1.76548824939929   -0.01730211700049
O           1.77097494335143   -0.81501911991657    1.95739736771463
O          -0.27430655344496    0.10759454778680    1.07124747359369
O          -0.29597174832383   -2.06508680820286    2.17928606550403
H          -1.19067256548622   -2.19763015432569    1.77695523726574
H           1.08308656266854    1.18019343357548    1.15822280587205
O           1.89711221904670    1.67788649835653    0.93797119316149
H           2.54739038135692    1.30393770845878    1.54099031065995
O          -1.57851928709806   -0.86082329303371   -0.98427154232678
H          -1.19028847387106   -0.37491134210145   -0.21870448462780
H          -0.92803357435717   -1.56123623166107   -1.13360258301398
O          -2.69656465420346   -2.18531206820424    1.08293962521203
H          -2.53338968582165   -1.76353706194873    0.21398323427683
H          -3.27140278637646   -1.59488553269033    1.57448628893721
O          -0.39714385251891    1.17662736179197   -2.40314675581293
H          -1.01951708771561    0.45881836848363   -2.18746002505973
H          -0.59642107195999    1.87261117438934   -1.73994558821911
O          -0.72734053137032    2.58292476863084   -0.13811284111603
H           0.06433636831210    3.03849003960425    0.16013047793703
H          -0.78059755268188    1.77921030418168    0.40108397970002
N           1.79346422091007    0.22473917031391   -1.32380322159393
H           2.59849664974362    0.05363937137024   -1.91643031414279
H           2.01822805890882    0.88875421046160   -0.54284228228187
H           0.96403952013251    0.62863463609642   -1.87938016373232
H           1.45672391243194   -0.67518139526647   -0.85731488804322
