    26
        -50.46826274  Gyration_radius:  2.41799859984 Dipole_moment: 3.551
 S          -0.31431536734699   -1.81491537915248    0.22901720662521
O          -1.44893361740592   -2.21109451957973   -0.57109017088438
O           0.74757128333724   -1.16930185034644   -0.50627233567889
O          -0.71219649361705   -1.01023656599717    1.38922620116019
O           0.29713518789080   -3.15600363151310    0.81586406704338
H          -0.46509026049011   -3.72424783341173    0.83509416967932
H          -0.04834737306742    0.45921718354596    1.57252636222788
O           0.22970123204440    1.40973327053443    1.60864640699540
H          -0.49340042754346    1.86176272375128    2.04891630406248
O           2.68647278510695    0.00946298932961    0.93660250590028
H           2.20394357534202    0.62997568895803    1.49090831719789
H           2.00894267428849   -0.59056744735065    0.57188575146532
O          -2.86786378545325    0.44675729853594    0.90143262341588
H          -2.11988865262204   -0.13428909997369    1.16331906810578
H          -3.65293454758079   -0.10098833457575    0.94983632875555
O           2.61142201548944    0.48447782680594   -1.71688113031648
H           2.19378596522688   -0.37541125952796   -1.84903563755836
H           2.96524904561881    0.42689697355909   -0.80487606023506
O          -1.75094998564886    0.24215601140161   -1.54841984151069
H          -2.31270122834603    0.50149969624773   -0.79001182227750
H          -1.59591352758595   -0.71149106304189   -1.40541972189297
N           0.36951427156013    1.73199146414027   -1.07363387986429
H           1.27942049963264    1.28667317330567   -1.40720190380021
H          -0.44412295239014    1.10780363774785   -1.36926447751443
H           0.37320780681706    1.73060647223396   -0.02673673637918
H           0.26029187674397    2.66953255437442   -1.44443159472378
