    26
        -50.45101324  Gyration_radius:  2.44394895131 Dipole_moment: 5.065
 S          -0.55205702141107   -1.47941423217274   -1.41493856526326
O           0.34010383044543   -0.44129308710182   -1.89630701407972
O          -0.77655487187824   -2.56396830844859   -2.29447364828863
O           0.03060433689073   -1.99791590691652   -0.07317258414417
O          -1.88628696392227   -0.82668486693005   -1.01718501462037
H          -1.90233074754393   -0.52475451460943   -0.03580525217752
H           0.59601965097152   -1.26959088353255    0.36256772231773
O          -0.09305514117815    1.98419777844551    1.07184954857195
H           0.09821185334208    2.85477843575516    1.42160290866802
O           2.85721450316826    0.06237444365803   -1.17563885382550
H           1.97972143235966   -0.04915662358661   -1.59406090047029
H           3.42444890145615   -0.60867111060319   -1.55829983645565
O          -0.26189642335272   -1.74846069766772    2.75251886595982
H          -0.27098030782740   -2.51710334332167    2.17505325434129
H           0.56872089539021   -1.29045802400401    2.57282009025820
O           1.46084947311869   -0.22147399132615    1.07039839920934
H           2.14812606287203   -0.07264713568070    0.38451637653312
H           0.95897019225266    0.61920554636329    1.11915501649105
O          -1.87266326612845   -0.05903661480407    1.39123264691861
H          -1.33958062721135    0.75491836848130    1.42044387409091
H          -1.41432960719704   -0.70366080274645    1.97459864317036
N          -0.85906307234860    2.06800068728715   -1.43162031447871
H          -1.85877335716399    1.92279174321386   -1.50508172631018
H          -0.60059450654873    2.80382481266126   -2.07684583564554
H          -0.36141266248472    2.09955216482519    0.10394107775287
H          -0.41341254594505    1.20464616233919   -1.74726887859923
