    26
        -50.46801046  Gyration_radius:  2.45886928396 Dipole_moment: 4.771
 S          -0.41869919923098   -0.67637147391876    1.91047116500839
O          -1.78623934747170   -0.83729863315732    1.43549703812361
O           0.48847381806351   -1.66386581929708    1.38289218430497
O           0.03837728100010    0.69706121477428    1.69298413827823
O          -0.45699483415951   -0.88562732015171    3.47788278208054
H          -1.11806488346630   -0.26248247457080    3.76158252856408
H          -0.86613612226935    1.10628308591866    0.44863378912955
O          -1.43384849788302    1.21639921437203   -0.35877034795445
H          -2.25148488909679    0.77250203137163   -0.11263304004053
O           2.10772479120075   -0.92755872178463   -0.61286281540494
H           1.70417162194464   -1.31625594511829    0.18877180739383
H           2.35746888202351   -0.00840593346505   -0.34172665781944
O           0.46743769285430    2.79008619697461   -1.60515940122043
H          -0.33750083359195    2.42001657991492   -1.21424754649411
H           0.42716510602789    3.73893024191135   -1.47734329808581
O           2.18627584335414    1.56533000449684    0.23207344774941
H           1.51229542867878    1.36104572728131    0.90249509333487
H           1.72477052880337    2.05423655578960   -0.47024219676822
O          -1.34767947956513   -2.60585871433188   -0.45442339594112
H          -0.60384213798617   -3.05133509967617   -0.03495261522991
H          -1.67748225354128   -2.00521521137248    0.25249904010096
N          -0.15007019568166   -0.68849747541319   -1.83591120241475
H           0.86406541938655   -0.75911892346742   -1.43070742605753
H          -0.67081974719335   -1.52995184686883   -1.45630566895952
H          -0.61071016804655    0.15393053808618   -1.43148014157184
H          -0.14865380415291   -0.65797779829275   -2.84901729010576
