    26
        -50.47202831  Gyration_radius:  2.47694148623 Dipole_moment: 4.478
 S           1.05591027748932   -0.90497541563187   -0.64456147424640
O           1.98840500423636    0.14461880822399   -0.24426843863235
O           0.55672460931685   -1.67681131540380    0.46919480174810
O          -0.04522413567925   -0.32114354270036   -1.42978075229605
O           1.81088338360313   -1.88937524987575   -1.58805429326617
H           2.29083648742434   -1.29824535178686   -2.20260606862752
H          -1.45068149941181   -1.34428187084645   -1.06677778834198
O          -1.96003251729693   -1.86736300941918   -0.42061099893593
H          -1.25436475986687   -2.26620525786901    0.11066487354138
O           0.90542867840409    1.83863275254701    1.51528431454927
H           0.54394150525762    1.18121883552643    2.15512384589527
H           1.50470579464800    1.31186284809713    0.94838814324276
O          -0.35143600203893   -0.24021964145179    2.57473298246373
H           0.04886109642765   -0.86644447496682    1.94338419425394
H          -1.28045748341954   -0.16862150400292    2.31773669822546
O           3.12666592926574    0.16979109370411   -2.59765855536474
H           4.08322939866778    0.13285701012122   -2.52607704896538
H           2.79133273785820    0.42363098833448   -1.71280161054049
O          -2.81724190578021    0.05231580089017    1.13505850483761
H          -2.56771254153674   -0.72505007035015    0.55767810096725
H          -3.74462788297833   -0.05501879156317    1.34880630822584
N          -1.07030274300371    1.70246940491029   -0.13985782490692
H          -0.27621956407226    1.92241279017616    0.57309644831248
H          -1.35306051824953    2.51848533122564   -0.67043829009666
H          -0.66648962429086    0.94925899282491   -0.77247695280623
H          -1.86907371495701    1.27620084929280    0.36682091077343
