    26
        -50.46129539  Gyration_radius:  2.41025533125 Dipole_moment: 6.584
 S           1.64796347867178   -0.51805002575866    1.25268702137912
O           0.39840744196932    0.00796220469621    1.81455628358426
O           2.30582772302016   -1.48588134677150    2.05799788396397
O           1.37221475740308   -1.00123284642135   -0.12409279540275
O           2.58163926823119    0.73477888603185    1.06141404809928
H           1.94527998416477    1.40096033095857    0.74417903998849
H           0.00943809526270   -1.82376116930280   -0.23496507590254
O          -0.86161679866854   -2.27710617198589   -0.39105238622510
H          -0.65568444736563   -3.20632187844466   -0.50063441807610
O           0.86896511971481    2.42450375401666   -0.15725502755109
H           1.33357655157548    3.24789391623643   -0.31684534166150
H           0.94817802188872    1.89167997483460   -0.97705452436652
O          -2.15798734905854   -1.25217034280975    1.83252140620613
H          -1.33435953410008   -1.03224228054081    2.29034202321775
H          -1.87527580943419   -1.80083032463354    1.08033655637857
O          -1.41283072483127   -0.07195613914392   -1.96369475205405
H          -1.34879863397085   -0.97847991878532   -1.61558555323809
H          -0.51605239540876    0.16520067033737   -2.25075868153384
O           1.25486330925106    0.60831912316282   -2.08922456186534
H           2.02960435351870    0.49212602567697   -2.64053749826647
H           1.35076466072522   -0.05191011578837   -1.33658615740403
N          -1.59671695124522    0.94257566266638    0.47870464748673
H          -2.21443895677968    0.26686562602542    0.98467716245111
H          -1.56712116593625    0.67184791427013   -0.54464067135178
H          -1.85664501184580    1.91208053239272    0.61389272501434
H          -0.64919500670715    0.73314794909026    0.93161864712869
