    26
        -50.45015285  Gyration_radius:  2.45673116506 Dipole_moment: 2.676
 S           1.43088883353954    0.20878822755470    1.37961178025919
O           1.58746369552133    1.18677519468120    0.33026785365703
O           1.10361607268767    0.73739416370032    2.66121933569770
O           0.31046109779461   -0.78854643516522    0.95559691530777
O           2.66248660360119   -0.69367120959344    1.43773814552493
H           2.66629844352001   -1.23896493147378    0.57205614239783
H          -0.53681278965586   -0.39637778977040    1.37055403340475
O          -1.66490538734563    0.41698213844232    1.96812676692474
H          -1.18170042101479    0.73948026185823    2.73651658421624
O           1.19925743797535   -0.07514818931096   -1.99329639428793
H           0.22858692566050   -0.08646312200751   -2.07715124104935
H           1.38235645211983    0.53871261554033   -1.25853072420348
O          -2.23809908873593   -1.63552161991399   -0.04697579401861
H          -1.36157279110769   -1.97412662618915    0.16288432149482
H          -2.49204674379913   -1.07744919983205    0.69712477887932
O           2.58358956631827   -1.91953275500329   -0.78685032450938
H           1.99353186955968   -1.31610019133934   -1.32273457361244
H           3.44458279883243   -1.89250566561692   -1.21091658774826
O          -1.56749375521991    0.02679479717415   -2.05497595984158
H          -1.86523585142856   -0.59559828535149   -1.35400158414631
H          -1.98460106157597   -0.26138331312237   -2.86827580086156
N          -1.14523606697191    2.11344227090912    0.07058602939436
H          -1.40050928824510    1.66944911532670   -0.80700276104374
H          -0.13061369287432    2.06557927106360    0.14342868529432
H          -1.41454219240548    3.08725127577284    0.02080293871963
H          -1.60975064710364    1.16074000150828    1.27419744440793
