    26
        -50.45633133  Gyration_radius:  2.44875433851 Dipole_moment: 4.971
 S           1.01186296418669   -0.98438953797126    1.60430798501861
O          -0.05133458364236   -1.46862494329710    2.45120298852230
O           1.22114053736912   -1.70265035661561    0.38034409002140
O           0.87773482256892    0.46896062422488    1.34893868311202
O           2.34360049979481   -1.11385264783666    2.47188630917363
H           1.99593877915852   -1.19162454838746    3.35442148247050
H          -0.70855707305230    0.82908064941160    1.02188011098223
O          -1.54103443430664    1.15931487149320    0.60399642092411
H          -1.55231349962245    2.10398492840593    0.78283039534742
O           2.03115856143385    0.37665438578248   -1.02064016047197
H           2.12097849191262   -0.58623798568281   -1.05412764570235
H           1.76511878438748    0.50939233740071   -0.08529334302075
O          -1.88112710670001   -1.67473598670324    0.52676393880027
H          -1.21448230514439   -1.79094497057092    1.23013152089338
H          -2.19672730630621   -0.77060698642365    0.63461653530750
O           0.61720280715517    2.94288895046056    0.02971462007822
H           0.81247034011980    2.22315171249748    0.64621320486635
H           1.45577942734144    3.16995487432955   -0.37482412602526
O          -1.31902713371765   -1.80396583207860   -2.05271590030470
H          -1.38658847704986   -1.91096331973615   -1.07122279102800
H          -2.12242134771892   -2.18391310899703   -2.41115479601638
N          -0.46553048866391    0.69543583319534   -1.82863806855094
H          -0.81054250193404   -0.26934602761325   -2.07235948993973
H          -0.63395044363798    1.36529242261520   -2.57062899647045
H          -0.94624731007523    0.98575112539672   -0.93876268937880
H           0.57689798611730    0.62199352673695   -1.60688028861235
