    26
        -50.46854473  Gyration_radius:  2.52547652415 Dipole_moment: 1.467
 S           1.36307633512124   -0.36967038014369    1.23689275798836
O           0.88561066099504   -1.25848850473549    0.18350067364498
O           1.14922923045313    1.02306675056015    0.89098308593156
O           0.84307870664913   -0.74248818066254    2.53486005856887
O           2.93356012015371   -0.55603344936134    1.31122449126298
H           3.01672456572883   -1.41303943697187    1.71522248965720
H          -0.76947467532906   -0.65820546566443    2.45020783945315
O          -1.74896901874147   -0.56999687548351    2.33995172210232
H          -2.12241025045712   -0.65886930459926    3.21858855791111
O           2.02436151690284    1.54831682887690   -1.54853727590800
H           1.73156382637710    1.31107190892531   -0.64185645480433
H           2.37153490652075    2.43956798835541   -1.48171399620975
O          -1.82221863582515   -2.26961647631403    0.11162793871042
H          -0.86303451447628   -2.37274959679321    0.14706048571957
H          -2.04159580294324   -1.78206507912947    0.92018082523885
O           0.21460423069023    0.92011418964905   -3.42206827978888
H           0.66147374246465    0.34271304887907   -4.04275479712513
H           0.90736585768385    1.23373655759718   -2.79753952688202
O          -1.46908484219754    1.62845991278156    0.71947266120982
H          -0.50943852407422    1.67256206178331    0.88226530951326
H          -1.79863038210385    0.98397327965062    1.36933184679208
N          -1.01042267636745   -0.08426542743825   -1.25105312107811
H          -1.70632603820241   -0.84069317133851   -1.23043925147889
H          -0.75835538705503    0.26062292820466   -2.20086818442724
H          -1.32708920829676    0.70320682676756   -0.62108566355686
H          -0.15513373377514   -0.49123095339097   -0.79345418247175
