    26
        -50.45971333  Gyration_radius:  2.45398054173 Dipole_moment: 7.641
 S          -0.16630409106112   -2.31539152243910   -0.61755641330089
O          -0.32241902895121   -2.29262703611505    0.85033296262537
O           0.48885124301020   -3.47382494602879   -1.11902020664191
O          -1.60175206141911   -2.23144515404427   -1.21653501731317
O           0.50747574905486   -1.05542210986787   -1.03001774025037
H          -0.18165066295497    0.10181164359497   -1.87762621719971
H          -1.98446066283080   -1.42180043732618   -0.80640689462283
O          -0.61757775333021    0.89482222534156   -2.29059949719928
H          -0.68014098733064    0.70903902562242   -3.22790780962077
O          -2.38104407107491    0.12617803509930   -0.32513411867290
H          -1.98657582215469    0.57707499985974   -1.09050209664992
H          -1.97055010849740    0.53420480728130    0.45251642222380
O          -0.92596318254979    1.69058712657779    1.51548081545944
H          -0.31461959819590    2.01278951170062    0.78974301920596
H          -1.33573539089194    2.46876900639036    1.89414227277624
O           2.45010672405823    0.15004123649314    0.10546965555602
H           3.28648720483910   -0.20346253472455   -0.19932049557481
H           1.74129402082103   -0.35590580908827   -0.39080088787322
O           0.73578957615912    2.33377285702490   -0.38485961969960
H           0.27497267652991    2.00892455328652   -1.17802740609705
H           1.48356995886741    1.73005501779036   -0.25648697317070
N           0.71436559214139   -0.38164520549012    2.11435344016086
H           0.04472460684643    0.40857867021983    2.09004203562982
H           0.24022325077894   -1.24140904733971    1.57028995903613
H           1.55465931812802   -0.12628387770629    1.56438342084601
H           0.94627351001334   -0.64743102611483    3.06404739036701
