    26
        -50.46831229  Gyration_radius:  2.50871316739 Dipole_moment: 1.071
 S           0.03092108261270   -1.87375478643829   -0.33967465953148
O           1.28816393232135   -1.32621660837078   -0.82241950449141
O          -0.17387503126952   -1.64284385618695    1.07640140840208
O          -1.09644066096007   -1.41013185491724   -1.13583002278825
O           0.14373991402417   -3.43817687404926   -0.54544697841737
H           0.83515518927989   -3.49935963802798   -1.19678540027979
H          -2.43803220998312   -0.51223239393343   -0.64448197394322
O          -3.11294720985416    0.13711682826713   -0.34988020567039
H          -3.88440880698461   -0.37308700328829   -0.10057803136405
O           2.93995242763104    1.89348641498027    0.75628800369841
H           3.77932619082583    1.58121019997714    0.41580263768486
H           2.61840458105949    1.19225772699088    1.36166757777195
O          -1.16553089002689    0.80966143988427    1.42897094138241
H          -1.99985780598701    0.79872634508416    0.92599497622911
H          -0.90696042576880   -0.13039352077624    1.49289231284144
O           1.75762762249427   -0.08638523280899    2.20236434201676
H           1.17501615535676    0.32190059818891    2.84757801172840
H           1.21641317553964   -0.76555899593662    1.76029934401027
O          -1.15299169790265    1.00709194118482   -2.44505839867578
H          -1.08195864833992    0.06304344346463   -2.21746864111416
H          -2.02581807991520    1.26597411281416   -2.13381384707463
N           0.65734081444796    1.22697416198637   -0.47750834816764
H          -0.02523894233578    1.20805283169717    0.32988617092216
H           0.99495971957375    0.24376395056231   -0.63195693622367
H           0.14391308642774    1.50780841727783   -1.33354309942743
H           1.48312652773323    1.80107236240214   -0.22369967948221
