    26
        -50.47100399  Gyration_radius:  2.4542424643 Dipole_moment: 1.248
 S           0.57464556151739    1.49292671848423    1.30563413969130
O          -0.13092956196336    1.93744659635139    0.11868112575867
O           1.88138592669641    2.05235871681458    1.48573726788568
O          -0.29340716063114    2.01707242884907    2.54751280092464
O           0.53647741619288    0.02676424859739    1.40279785216477
H          -1.18536590047692    0.10507780381251    1.53450416083787
H           0.34404908597334    2.49823971870312    3.06606065951276
O          -2.15056296783691    0.18666543245130    1.45108261734762
H          -2.33635466845221    1.11131622237098    1.62240776697887
O           2.76493661134821    0.01906447796332   -0.14617200735784
H           2.06424076267274   -0.08702671625981    0.51580270586813
H           3.11763300391506    0.89471924159888    0.03549289977485
O           1.37118682733196   -1.17177996062288   -2.11296099515468
H           0.99283186255443   -1.83924587973476   -1.51804675010724
H           2.05022058568799   -0.72398097767731   -1.57017340378114
O           0.04912058716839   -2.27288317565592    0.07044038457536
H           0.21547432794157   -1.44765010295599    0.56911956700466
H           0.28790065884294   -2.98856562939026    0.66109045879309
O          -2.37967197476161   -1.25222004060171   -0.80828544515084
H          -1.69457414042381   -1.89771529012821   -0.57157136896609
H          -2.53435987987387   -0.75175360407357    0.01869460190935
N          -0.71597541692878    0.43212328080923   -1.96070500459016
H          -1.00387410693037    0.95652787818059   -2.77862452071894
H           0.14555922480893   -0.16237720231100   -2.15685439882678
H          -0.48410271432340    1.08447628395528   -1.16555601359562
H          -1.48648396031497   -0.21958047981325   -1.61610911083483
