    26
        -50.46863446  Gyration_radius:  2.40807469381 Dipole_moment: 3.380
 S           0.33547231762149   -1.28343756847770    1.18535563428005
O          -0.87869493231058   -0.89355980377679    1.89120465407006
O           0.11129799264008   -1.43535800395986   -0.23287204355994
O           1.45312110297621   -0.41330013815800    1.50022664580744
O           0.73195543287034   -2.71890913580610    1.72744250026966
H           1.02950868525748   -2.53498754363310    2.61230545925351
H           1.14182082033945    1.04981183422183    0.73739277485539
O           0.72708596008937    1.84121271862105    0.33221769990759
H          -0.00527325434666    2.05567467521820    0.93914281119749
O           2.56711131267599   -0.71507817695049   -1.12283478655028
H           3.04395219826821   -0.16881447839838   -0.49546217726304
H           1.78197403935074   -1.02831569823255   -0.64214110141287
O          -1.36102058403464    1.68898905689767    2.07771608488245
H          -1.28794326102660    1.99697121893367    2.98194139209359
H          -1.17668271400602    0.72058081373943    2.10252524881797
O           0.55049028321178   -1.02371294411409   -2.93247460604371
H           1.47224207224642   -0.88799921698071   -2.65731983644172
H           0.20388949469961   -1.63784692071587   -2.27133925465196
O          -2.50624350515684    0.07581789195100   -0.06369719515406
H          -2.68352087099235    0.81063218231744    0.53506431037933
H          -1.96569324799876   -0.54088760234365    0.46240683248875
N          -0.66231180808243    1.02553955433160   -1.75707355135938
H          -0.97976292059300    1.76514824280406   -2.37389372297748
H          -0.17793636847976    0.25203532614784   -2.30090645376855
H           0.00019175091452    1.39956381729276   -1.01244804027886
H          -1.46502999613326    0.60022988907431   -1.22247928884167
