    26
        -50.46238258  Gyration_radius:  2.57425793247 Dipole_moment: 6.517
 S           0.41981281969021    1.66960296788927    0.59933722981153
O           0.43591490521830    0.80633581794214   -0.61908471580554
O           0.03062664150316    3.01256208713392    0.27537338123967
O          -0.72121188778992    1.02392036751528    1.49847020654916
O           1.64109949830418    1.47899439080369    1.33614069378655
H           2.72363034580499    0.52390176723549    0.49755292429896
H          -1.55665094400785    1.47164225823566    1.19997905659157
O           3.16015200805835   -0.09471524052298   -0.13185370451705
H           2.74204873200718    0.09167013021348   -0.97604593279052
O          -2.02707353724567   -2.00728790669645   -0.90867950378665
H          -2.09645404318387   -1.08639078350488   -1.22800460950698
H          -2.29293563995962   -2.57392283506658   -1.63361512363861
O          -2.54304978862436    2.36286334030919    0.24609571146008
H          -2.59547231658190    1.81761085269644   -0.55440458873859
H          -1.76694149018004    2.94290129354920    0.13246809716317
O           2.54861072983204   -2.45717940853552    0.85788789802190
H           2.90591378964488   -1.63446164598176    0.43173170820985
H           3.00003270463125   -2.52902210385316    1.70034295998157
O          -1.84848188376057    0.58795316671730   -1.80653319701230
H          -0.95181966678881    0.71674663103980   -1.39422830662377
H          -1.76167126561490    0.86763849253467   -2.71942199041852
N           0.11005328950573   -1.43220602797841    0.65313440726149
H          -0.23775036627743   -1.05350318926114    1.53435927272355
H           0.34429909947299   -0.57405831993085    0.06466676941366
H           0.98786732646544   -1.99953874985837    0.78737091217247
H          -0.65054904017727   -1.93205735270980    0.15696044415190
