    26
        -50.45534520  Gyration_radius:  2.47389978726 Dipole_moment: 8.025
 S          -1.25227006387850   -0.25657400054066   -1.84923410756562
O          -1.43373448759194   -1.12295360706465   -0.66368265938808
O          -2.42940266923598   -0.05914952450285   -2.61942173245905
O          -0.60908488014350    0.99494221451119   -1.40190806770096
O          -0.18236461101310   -0.99760496576977   -2.73091957847501
H           0.54610009704149   -1.19672478337823   -2.11347951291504
H          -1.31332464211476    1.79940608875309   -0.23202756611839
O          -1.60730196854560    2.33377494984367    0.55531439080683
H          -1.94781912185170    3.15121300831205    0.18936638827188
O           0.45821852640690   -2.83645618760517    0.76084949204516
H          -0.33429173747167   -2.85219479887754    0.20907523279131
H           1.14985281802782   -2.49431798154446    0.16937303201123
O           0.56934122509657    1.87772860397745    1.93465578380330
H          -0.22297773991314    2.19775145293735    1.42710384827002
H           0.67244801317134    2.45967160570414    2.68810844591605
O           1.82753062995019    1.07688125640230   -0.46895378820150
H           1.66779012715563    1.39000826245969    0.43050126256741
H           0.95351443382312    1.15466182267839   -0.92160614943703
O           1.92024164882676   -1.43836473488772   -1.07675852413171
H           2.67629205556380   -1.59861234683969   -1.64368144057263
H           1.98761702649953   -0.48543397486108   -0.78228532571820
N          -0.61173185182775   -0.59712249285079    1.66734071756223
H          -1.03376176414259   -0.64097603792942    0.65083911799385
H          -0.02305721588908   -1.46390179691580    1.65930902352233
H          -0.06424386354008    0.26764294510085    1.81772423793007
H          -1.36357998440249   -0.66329499711198    2.34439746918843
