    26
        -50.46445262  Gyration_radius:  2.49627796363 Dipole_moment: 4.460
 S           0.18465061850360   -2.29581626773626   -0.19963846992485
O           0.58611666127286   -1.48118038020002   -1.35393830105646
O          -0.02618556869410   -3.67488659912616   -0.49090276105688
O           1.45819237099950   -2.25470749827574    0.78728335384441
O          -0.87969361643326   -1.61594918331335    0.52629824224321
H          -0.05289736616262   -0.49567174698005    1.33259031365963
H           1.72910300629600   -3.16375428871310    0.72517972039874
O           0.48741074291340    0.20487237059876    1.77383497684299
H           1.31127151592716   -0.23181267003407    2.00109976908550
O           2.61791788255040    0.23259257082690   -1.15315344551404
H           3.27522702146742   -0.01085670493169   -1.80539179565548
H           1.92629401422313   -0.46115073476191   -1.18906259483700
O          -1.66520410647203    1.94956418316895    1.88390954236422
H          -0.96002827259004    1.34133068937258    2.14968235735597
H          -1.22770885693507    2.69105859679276    1.45905501728543
O           0.89391009340173    2.05851837864703   -0.14297357660224
H           0.77644269513635    1.49872761077709    0.65456211682666
H           1.69347862502931    1.68958833276428   -0.55513851009532
O          -2.81757781919602    0.24351078366135    0.11109383830402
H          -2.39996124928000   -0.59001429108642    0.38582240727138
H          -2.61891512139549    0.88122743859882    0.82769825081681
N          -0.86964587114785    0.71083417602060   -1.57296665148222
H          -1.75259041118843    0.57713374876886   -0.97916997760031
H          -0.35517252609992   -0.20958279139244   -1.58050639408454
H          -1.09092829717475    1.00966423152461   -2.51578667134000
H          -0.22350618441673    1.39676006486410   -1.07948077689944
