    26
        -50.46659778  Gyration_radius:  2.5214737693 Dipole_moment: 2.524
 S           0.11920270886249   -2.08818837952776    0.60242348580909
O          -0.35265853209114   -2.04344530793037    1.96793917930425
O          -0.87936341363122   -1.80387578251288   -0.40122770444241
O           1.32253837968499   -1.27262942548564    0.40285513866674
O           0.57852801558738   -3.59375942645686    0.35445585761925
H           0.81617440744342   -3.88952526602994    1.22777329537313
H           1.75726171384997    0.25241053895428    0.88839391221002
O           1.99010370698351    1.15946339303184    1.19466053430723
H           2.94686651787986    1.17152365996825    1.24926549569065
O           0.92982501387759   -0.59907915493753   -2.09951734040152
H           1.23906765197649   -0.90083130979085   -1.21741562781749
H           0.29474857894231   -1.26857433437367   -2.36989840966995
O          -2.89315456163052   -0.29748151351753   -1.40473557972133
H          -3.64926881631473   -0.40648089163193   -0.82634237521993
H          -2.23246256173836   -0.94728893042842   -1.09766007145219
O           0.84815850736734    3.25969200094454   -0.16255936228462
H           1.33239810753491    2.54245071919755    0.29330322587266
H           0.66328428543745    3.92436199299995    0.50187631790999
O          -0.74728935327797    0.53140922998245    1.66880662176008
H          -0.71350958324144   -0.43018435677437    1.85678942968066
H           0.09158814067213    0.88763644164222    1.98363313024130
N          -0.70085274389038    1.18698771135936   -0.93974325232764
H          -0.73216736978534    0.86340539921998    0.06327191696110
H          -0.35646584235267    2.15885400513853   -0.94261295069106
H          -0.02868788325660    0.56628710729413   -1.46607828365602
H          -1.64386507487271    1.03686188967724   -1.32765657369760
