    26
        -50.46833376  Gyration_radius:  2.45134144346 Dipole_moment: 4.300
 S           1.07287197397034   -1.59218896122668   -0.98562078970288
O           0.89678279161230   -0.39986418832813   -1.80366906211363
O           0.54512053621090   -2.79445129714603   -1.53555689646437
O           2.63437192246024   -1.77982969980352   -0.81541881698985
O           0.56885547872055   -1.31156336788728    0.38574751777161
H          -0.46224907924747   -0.36844184847563    1.36440267438044
H           2.95615665716225   -0.92886793888626   -0.50152237833165
O          -1.01053679298148    0.21215823241381    1.93282550906826
H          -1.31894593023507   -0.34075356280383    2.65222137188485
O           2.45675515134070    0.34381696995185    0.99859309803676
H           2.89657692548220    0.05007734263084    1.79889700834089
H           1.71048696528799   -0.28608267055928    0.83964154265642
O          -1.89786485140965   -1.88084324747816   -0.65848975778878
H          -1.02258379627805   -1.81650545319078   -0.24797507379902
H          -1.75892470034683   -2.47466576546769   -1.40061528474035
O           0.59844637708225    2.34881605820414    1.13752377531460
H           1.41507809172538    1.81774072826055    1.09360346502977
H          -0.02027181439566    1.81785526590967    1.66210465463647
O          -2.71164937712775    0.63924275100627   -0.21470384904334
H          -2.37390036896009    0.62331245798228    0.69627562664374
H          -2.63647256847787   -0.28998256226067   -0.50920211735210
N          -0.51082152608133    1.70473338862907   -1.19557582570742
H          -1.47501645054660    1.35332225522616   -0.91077807211423
H           0.06288503239817    0.85932956050537   -1.48908431065859
H          -0.56419436168583    2.37474734191075   -1.95393740673386
H          -0.05095630567392    2.11888821098033   -0.33968663224931
