    26
        -50.45411381  Gyration_radius:  2.60338407716 Dipole_moment: 4.206
 S           2.50969569549638   -0.95847755290563   -0.20928750112399
O           2.02774342650890   -1.49566096029139   -1.47677253936545
O           3.83384104668398   -1.33612227455111    0.16329801025639
O           2.57909706909773    0.65325538683379   -0.45258639371669
O           1.48831809258675   -1.09584345882982    0.82226731009178
H           0.87706536669819    0.16773875595656    1.53489667782867
H           3.45950791690637    0.72193887446956   -0.80632713942736
O           0.29499063983964    0.83075376670335    2.00245095742656
H           0.74769123004135    1.05403938203948    2.81672727095207
O           0.31562134891541    2.32295555194891   -0.31723466691159
H           0.15249398047508    1.97879750486283    0.57622209812281
H           1.16361209821451    1.93462855305076   -0.56809134975607
O          -1.31766726646350   -1.28025972277553    1.41135873802200
H          -0.85702294354000   -0.46867281555513    1.70623826005608
H          -0.77661952870504   -1.99987507018388    1.74577875501952
O          -1.49774492004100    1.08882226696400   -1.83767625476479
H          -0.85832531739027    1.68506609449856   -1.38456831631665
H          -2.26845985413645    1.03452127070845   -1.24567774721719
O          -3.19142215008913    0.51652106397247    0.25656066296733
H          -2.75634697084381   -0.23194050591399    0.68530129333815
H          -3.28521754574236    1.19879132484202    0.92333274748437
N          -0.53382635645179   -1.27610266755722   -1.27445712011408
H          -0.76728846608750   -1.35098609712036   -0.26566117718597
H          -0.99083066407474   -2.01526523935390   -1.79867964303199
H          -0.87967402110394   -0.31728560592187   -1.61847794237441
H           0.53076810319808   -1.36133780588293   -1.38893499025706
