    26
        -50.46765224  Gyration_radius:  2.55136615944 Dipole_moment: 1.887
 S          -0.81774626832472   -1.47697822818379    1.33086225779853
O          -1.33808948192736   -0.76976573000066    2.46623224122760
O          -1.65275799968300   -1.39960319068120    0.14015452326382
O           0.56963142455577   -1.13011622526001    1.00969173736826
O          -0.77021106701563   -3.01295417414985    1.74361851242481
H          -1.39359937601518   -3.05448085456053    2.46194985118349
H           0.63710633879092    0.39738332578666    1.74084349995730
O           0.40445751827126    1.28616140699285    2.07665958001716
H          -0.22537769427571    1.10092402753041    2.78125515183500
O           0.63518437233376    1.73096346122905   -1.75578977131490
H          -0.22807411783792    1.67044887359852   -1.28323711349043
H           1.21918238067293    2.20062977978061   -1.12629327526403
O          -1.37907726087266    1.28069811062520   -0.07633931171688
H          -0.89638146914179    1.46161999554211    0.74640244419290
H          -1.63640161117684    0.34535998759959   -0.02704004061281
O           1.92814635362585    2.82697228391777    0.35806262613381
H           1.75613083719503    3.74835496012786    0.55861666345398
H           1.48626824493949    2.31025020576206    1.05194289331591
O          -1.04010364462836   -2.05445311076549   -2.32727436402976
H          -1.68051316143574   -1.58469727175441   -2.86537520840774
H          -1.34418572508902   -1.94124754930586   -1.39647534351631
N           1.17977410037483   -0.79700260086287   -1.53730990015829
H           0.42111079688126   -1.32485651591068   -2.03305375436658
H           1.03600827396343    0.26414296833660   -1.70576979734427
H           1.02778149195271   -0.97182533781055   -0.50925647923241
H           2.10173675386413   -1.10592859758805   -1.82307762271773
