    26
        -50.46060442  Gyration_radius:  2.49011293109 Dipole_moment: 6.518
 S           0.47661015380498   -2.16570754090290    0.85729734685348
O           1.70873917834960   -1.39286646209536    0.72805803219198
O           0.56672564827673   -3.53988878862759    0.48824145038292
O           0.14308050860276   -2.14652615482692    2.43103389398259
O          -0.62877769575370   -1.43052556957519    0.23169993069530
H          -0.23919043125409   -0.16622594369553    1.22308047304000
H           0.08014344343246   -3.07452907693847    2.63269007843947
O          -0.00702366364061    0.59957547801599    1.79149489880225
H           0.64740491386645    0.24706776009210    2.39820667679524
O           0.75614339896704    2.39327560916784    0.00703799236771
H           0.95611694338967    3.22970062846047    0.42821424946794
H           0.45563830178811    1.77657233351697    0.72223132012178
O          -2.68836659084099    0.40305106074830    0.51979120744138
H          -2.19143073135755   -0.41379459962708    0.36259936810263
H          -2.31892220183054    0.77231037537929    1.32674322766922
O          -0.43674192472910   -0.55840073791371   -2.33112854662324
H          -0.95895671609821    0.27968285560729   -2.23871791735378
H          -0.66834648889278   -1.08348618259320   -1.54423835628884
O          -1.54206008723414    1.72048494062897   -1.57271795993604
H          -2.12771145723289    1.34711873330257   -0.88395428510824
H          -0.80585634045431    2.13067142212418   -1.09888545563278
N           1.79611035531002    0.22934082947060   -1.31037235913400
H           0.92301328398846   -0.09669776615856   -1.87849917312215
H           2.64608533972282    0.20464664604663   -1.86149831163053
H           1.60297371066577    1.17564198377599   -0.94376854360896
H           1.85459917915609   -0.44049184337844   -0.48463924792059
