    26
        -50.44330397  Gyration_radius:  2.54230789478 Dipole_moment: 6.437
 S           0.96197893484549   -0.80710285095702    2.50599082479003
O           2.11849761414506   -0.34848889671180    1.79025215781774
O           1.01049688873758   -0.85185235480704    3.91833759590084
O          -0.25476768217536    0.10528315386251    2.05922198749196
O           0.50984754292712   -2.17608047345599    1.95925213016925
H           0.49398031508505   -2.09594367373153    0.94823268924887
H           0.03261679920252    0.87879895899514    1.47657722449457
O           0.18106921362283    2.05937106580367    0.45942015976350
H          -0.09256437420538    2.88368090857405    0.86357642289716
O           1.99639535838360    0.37140410248813   -0.75380019993538
H           1.54300307788038    1.19529331864947   -0.52663594799137
H           2.36106853129314    0.07321411374894    0.10092014383467
O          -2.18561003052613   -0.91505605477536    0.39246172928517
H          -2.59811250620748   -1.70932759402611    0.73727221683604
H          -1.67165577610619   -0.53136571177317    1.12445973100296
O           0.43945295424743   -0.06200437147187   -3.07273577405155
H           1.22050214641575    0.17012418362061   -2.55225287083640
H           0.38336748094180   -1.02046597465381   -3.04727489109476
O           0.28532355104402   -1.70475002358453   -0.53477064565454
H           0.88877281546916   -0.94384762496355   -0.69658354351957
H          -0.62247880680525   -1.35635728420880   -0.49102544572869
N          -1.47033405520286    1.35199642834544   -1.40274974361767
H          -2.05188862822332    2.04949261845906   -1.84776402770539
H          -0.89877652377634    0.91158648602278   -2.12645436294779
H          -0.50629122208934    1.83301995491315   -0.27732373591927
H          -2.07389359892163    0.63937760562788   -1.00660381452561
