    26
        -50.47225097  Gyration_radius:  2.39566390665 Dipole_moment: 5.715
 S          -1.56256713896805    0.55306387098078    0.28913974393520
O          -1.27123799189192    0.32848123051962   -1.11884969367312
O          -2.26839129198656   -0.56169746982060    0.89193411161103
O          -0.31936220041799    0.82594367928686    1.03557936429750
O          -2.44205980952996    1.82409125300284    0.41293615088537
H          -1.99927257465690    2.45295740704604   -0.20933799476870
H           0.58493158211012   -0.34690941952099    1.63593758104534
O           1.16089197811837   -1.10321253626190    1.92746227184958
H           1.33590151741567   -0.95996908764321    2.85852415631078
O           1.47135912096920    2.15218760862701   -0.29105385414816
H           0.78397238449750    1.66825406513439    0.23238314931000
H           1.96489546051257    2.68567451187139    0.33416690480195
O           2.34648266776828   -0.51245258181476   -0.63555161353568
H           2.15396225148431    0.43667593016814   -0.70525591502594
H           2.18045587270564   -0.75331405357775    0.28516857210717
O          -0.95097731806661    2.94398649248344   -1.42111338036105
H          -0.01821466541106    2.96905926213048   -1.15146075167746
H          -1.06689430627720    2.05103413448724   -1.78431536966900
O           0.25285617276140   -1.73451848845050   -1.76658799421499
H          -0.34908583091802   -0.96046877087343   -1.75607547642665
H           1.13259742262204   -1.36154969442446   -1.52471997590605
N          -0.63048605668984   -2.55835601366842    0.50492693401543
H          -0.25201569064095   -2.35607017295911   -0.50412525585994
H          -1.40753172554038   -1.85229909613718    0.67143658944464
H          -0.95571813065428   -3.51181680045346    0.61868228641039
H           0.12550829061388   -2.31877527017964    1.17016946922191
