    26
        -50.47196971  Gyration_radius:  2.42884088609 Dipole_moment: 5.393
 S           0.11859689460208   -1.12440123692640    0.86583384919108
O          -0.45672327245765   -1.59398762830214   -0.40359334391208
O           1.54765379600249   -1.28517086039111    0.91731576786938
O          -0.24677388008353    0.29734611697071    1.05042953554825
O          -0.52023294444584   -1.92485488437946    2.01391369008969
H          -1.45843008913676   -2.10596202759370    1.71043715011800
H          -0.48155005159525    1.42114810269197   -0.21108969844647
O          -0.41430831469750    2.01894386604427   -0.98662887824243
H           0.23734206549668    2.67623569612668   -0.72533375066698
O           2.97464943177264    0.06127675889084   -0.84675311287110
H           2.83928516227277    0.89557973354641   -0.35713307169630
H           2.67997234339981   -0.61528834006172   -0.20027805279483
O           1.91750410995070    1.87531088654514    0.87564188264088
H           1.17101405182856    1.26507745550415    1.05086881074445
H           2.42164538152407    1.90728405462412    1.69003462258122
O          -2.77404355203832   -2.16594314808189    0.81361805170807
H          -2.19895699971265   -2.14524567513537    0.03284682488259
H          -3.11778424458656   -1.25727905298044    0.91222576472541
O          -2.90733411558127    0.52901053917924    0.96587280897155
H          -1.94484192085367    0.49788259789682    1.13269938788776
H          -3.04003049270212    1.18663013336149    0.28029897958234
N           0.73036051828648   -0.08383968508477   -2.15727984478134
H           0.69859447058760   -0.33066167284305   -3.14010443025047
H           0.25801400701817    0.83135534866565   -1.95570542268381
H           0.23038805905139   -0.80316655291107   -1.55280986623657
H           1.73598960611711   -0.02728053527217   -1.77532766390262
