    26
        -50.45924555  Gyration_radius:  2.64272081558 Dipole_moment: 3.193
 S           1.65378154614958   -2.03128927960866   -0.02628427025878
O           0.39384265619970   -2.76769429461270   -0.00283119883076
O           1.75943852234437   -1.14144504494439   -1.15747734792547
O           1.89276982759398   -1.34601308175597    1.24101727599950
O           2.79996537353940   -3.11633388514312   -0.17571677176085
H           2.59734143289086   -3.74534854350100    0.51057872993557
H           1.02727384432594   -0.11329123902552    1.64890152055188
O           0.38063905372628    0.63191810414412    1.82708831046482
H           0.22083896593736    0.61259301077206    2.77207584105537
O           2.03217888373734    1.39584696863469   -0.51616000106451
H           2.15790652157627    0.44681798067604   -0.73514473093348
H           1.83500191699088    1.42102649722270    0.42490149408258
O          -1.50713413379250    2.35524829963855    0.29858685838121
H          -1.14432257824313    2.27447345895846   -0.59271150359293
H          -0.80160195835207    2.08325581228444    0.89692389532417
O          -0.16071024620397    1.20473194330169   -1.94489916419838
H           0.68627914309670    1.39607131248679   -1.45789752293114
H           0.11894175257987    0.84148585122048   -2.78670972801368
O          -3.49019563061333    0.49533711842916    0.26427121784498
H          -2.91065265972858    1.28060460106127    0.35806601584395
H          -4.30583169820500    0.80169743654855   -0.13169317553527
N          -1.06606102565810   -0.61581462237834   -0.15291253942555
H          -2.09655609452976   -0.59043359142533   -0.10149392014036
H          -0.74359445990803   -0.05038742146204   -0.97460474496240
H          -0.69141308485276   -0.14171772770633    0.69162283516958
H          -0.63812585059396   -1.58133969381208   -0.17749736508909
