    26
        -50.46670629  Gyration_radius:  2.50046651634 Dipole_moment: 3.090
 S          -1.05738976665315   -0.83250437141532   -1.62148855934238
O          -0.96277441566523    0.59576623960693   -1.35443810236717
O          -2.13699131989765   -1.45593192362411   -0.88641107264686
O          -1.41826990795520   -0.98726730905065   -3.15638445415496
O           0.22312259984196   -1.49988599340535   -1.44359151615104
H           1.44634343961116   -0.85607876688303   -0.65896035154010
H          -2.35477900585054   -0.82217272396700   -3.13716035280304
O           2.17169071816119   -0.50018928254264   -0.07662559665197
H           2.97039417468108   -0.96114978685008   -0.33689885072602
O           1.31959988924399    1.98514323364837   -1.04900130951519
H           0.47643687110883    1.56645175424782   -1.30997563895407
H           1.86291462036357    1.25349422013158   -0.72358793953667
O          -0.68641372767331   -2.83622792802050    0.76483629610567
H          -0.03574442813072   -3.00252079738219    0.07309498536823
H          -1.41804176275018   -2.40275936435122    0.26465172482260
O           0.43309701213618    3.20229719356887    1.12952214403661
H           0.10169477263999    4.06661053206238    0.88335632937554
H           0.85829112006975    2.83192527502907    0.31467181604099
O          -1.28917164387325    1.17028768382627    1.21757173449667
H          -0.74618847843947    1.99201235689769    1.28182636661423
H          -1.34260712272407    0.97273056434389    0.25832675949055
N           0.33387694568227   -0.70031981512154    1.94175872929221
H           1.18532773049553   -0.53540116668081    1.37694418705070
H          -0.09998809942667   -1.60982043570550    1.59938993854658
H           0.54463031493105   -0.73349468838648    2.93273660515882
H          -0.37906052905645    0.09900532987849    1.71583613810966
