    26
        -50.47304641  Gyration_radius:  2.48609091236 Dipole_moment: 2.184
 S           0.39120306027177   -0.94207282227256   -1.86148031484490
O           0.92893629237900    0.21366716360323   -2.54937353757159
O          -1.06418995397849   -0.90311161235686   -1.77440808079992
O           0.74417364213101   -2.19890517871679   -2.76151040959449
O           1.01178857150917   -1.19752396317522   -0.57558535689503
H          -0.15481912332365   -2.18652477073794    0.28735197935287
H           0.49603338203297   -1.90293613917921   -3.63092077320195
O          -1.10507831705098   -2.33966027557758    0.45352758311394
H          -1.48848756574013   -2.04653272037558   -0.39139752374235
O           2.09747705835026    0.82399776802037    0.81791406540005
H           1.84280121325568    0.02541789823487    0.31678673137208
H           1.76449077848901    1.56218818448062    0.28543650557699
O          -1.63022816344196    1.29642353164263   -0.39969004259626
H          -0.84170359850554    1.84624458791581   -0.55679102393462
H          -1.53557432036650    0.53351432229827   -1.00901391198333
O           0.79060856213415    2.35092189677963   -1.08662347864353
H           0.89321618393399    1.56601512464653   -1.68439794326277
H           0.99800038655250    3.12077506707901   -1.61864327962062
O           0.77720423214176    0.46949924921408    3.03954986278098
H           1.32698497578996    0.69288924454593    2.23650620043550
H           1.25142982495793   -0.23442322067690    3.48459098199357
N          -1.51294192196693   -0.10857074289472    1.81910298244693
H          -2.33728400090168   -0.05252429122474    2.40647784062765
H          -1.59343242685055    0.56291440799716    0.99303874057682
H          -0.64153640868038    0.12442534042752    2.36858292152734
H          -1.40907237309943   -1.07610803959325    1.39096929152745
