    26
        -50.47014101  Gyration_radius:  2.40830243396 Dipole_moment: 4.178
 S           0.80136885293896    1.49476394526279    0.77525680254408
O           1.54433940798706    1.06308167781904   -0.42273190843688
O           0.22161754929918    2.79475515296929    0.64919120269831
O          -0.23952102468667    0.47550036861929    1.05977253501184
O           1.79197697342171    1.46718183431165    1.96742852666384
H           2.41753993560014    0.71854289394851    1.77756166807339
H          -1.45012845494881    1.39216980334232    0.18772245129409
O          -2.01880445220556    1.73400281051007   -0.52973643000789
H          -1.85415407374696    2.68118671695951   -0.50647033320019
O          -0.82358781319675   -2.12549363751780   -1.22851935512779
H          -1.59797684844010   -1.91735573854896   -0.66247504810919
H          -0.10228433111278   -2.27729803875581   -0.59129285235875
O          -2.51135358977638   -1.02518821356520    0.55095280210950
H          -3.10865136064688   -0.35501098719536    0.20970380404500
H          -1.76889250864623   -0.53344448249475    0.93631660423369
O           3.16286609464811   -0.51688950441537    0.98899172065117
H           2.92798444113233   -0.04111994822406    0.17628664316933
H           2.53487887458890   -1.25799013897687    1.03300340790393
O           0.79641010031024   -1.91165493578915    0.97882033592545
H           0.45407841821780   -2.39021709027684    1.73622349772229
H           0.41685468230994   -0.99694197984613    1.03795192125027
N          -0.32170569417595    0.30748627094238   -2.05928555102403
H           0.52558800307425    0.61203675669664   -1.48477243850505
H          -1.11680920362460    0.88366170444435   -1.70065372000381
H          -0.16600166812780    0.44962760557775   -3.05114347359665
H          -0.51563232021995   -0.72539283577900   -1.82810282291753
