    26
        -50.47200592  Gyration_radius:  2.4985370081 Dipole_moment: 3.934
 S           0.89008996196174   -1.65456904202238    1.13813509644166
O           1.46010146329567   -1.11665908540731   -0.07768214049219
O          -0.53524336276709   -1.94901255722216    1.00146452033420
O           1.60182507792000   -3.05010723062800    1.37529318883381
O           1.16071588123157   -0.85612552355947    2.31807437372867
H           0.72065431639045    0.66775528844383    2.17243883917681
H           1.32059042269795   -3.26984835723368    2.25699645507064
O           0.37867787286325    1.58816393920951    2.01541915082007
H           0.49651733810399    2.05717693884481    2.84307079677715
O           1.77193916478902    1.53534763032739   -0.37669007898159
H           1.82038015251437    0.56136340204579   -0.34880244261377
H           1.34536774731441    1.77821852702136    0.46028412744138
O          -1.82722958517829    0.36809924005548    0.96354576150202
H          -1.46296047552993   -0.53401690028131    1.09367688621261
H          -1.16757558866162    0.96345034180427    1.36210959780959
O           0.13446938139820    2.20214550886922   -2.30057708246347
H           0.00960755078193    3.14654097819513   -2.20008262359539
H           0.84130308672485    1.94921064804651   -1.64346958051277
O          -0.47215508095277   -2.02066070298116   -1.62751588844209
H          -0.73293331564902   -2.23747175171892   -0.71037627855807
H           0.45726015839492   -1.76531910204824   -1.50271561559579
N          -1.65939589920208    0.33831816497044   -1.66106725203493
H          -1.00076801004929    1.09084610013714   -1.98781978601942
H          -1.20023034706091   -0.61525409385598   -1.79076503275292
H          -1.81199574028478    0.44096700077243   -0.60979616387755
H          -2.53901216104796    0.38144062821951   -2.16314882820488
