    26
        -50.46404074  Gyration_radius:  2.5848259632 Dipole_moment: 1.493
 S          -0.51029830788209   -2.42561846454355   -0.06856358884753
O          -0.93688764251753   -1.96050085365199   -1.37915161200014
O           0.89626500157384   -2.75329488044395   -0.01335247094077
O          -0.92100709592370   -1.50605265137972    0.98989200575972
O          -1.30400616842210   -3.76863310666869    0.22273611219509
H          -0.86775677834426   -4.38875174595303   -0.35278993874696
H           0.13679831840271   -0.52197852328724    1.81921223006389
O           0.76453042974965    0.12057995990512    2.22256724077136
H           0.73236134393123   -0.03006425669670    3.16801957995848
O           0.67055454652681    3.02384428897332   -1.71231461098799
H           0.48400385226495    2.94339671049204   -0.75682116505911
H           1.16730494200806    3.83465371538696   -1.81991178301761
O           2.22669691962040   -0.46970684908277   -0.01669065954855
H           2.05816539012705   -0.17065306965630    0.88958156586803
H           1.91460750565308   -1.40052289985104   -0.03915317936307
O          -0.01982742219691    2.46307929219369    0.90187924695357
H           0.40764620802623    1.76055072995589    1.41788955884260
H          -0.95023254339236    2.21237486627902    0.86257813990816
O          -2.09294696452073    0.70123251213218    0.19899376320178
H          -1.76806718558864   -0.15048506777685    0.57320320905854
H          -2.86361094518773    0.48032490286421   -0.32566027576994
N           0.15673534087416    0.40984144707298   -1.38270581944870
H           1.05886428352061    0.19042145679230   -0.85524261340556
H          -0.54944800607294    0.81069958741810   -0.73721665119229
H           0.34908645630388    1.10221976631472   -2.11024483351960
H          -0.23953145849413   -0.50695683684334   -1.69673346071272
