    26
        -50.46129546  Gyration_radius:  2.41047614013 Dipole_moment: 6.571
 S          -0.27110023277649   -0.95548741302559    1.88887205459042
O          -0.81601278510870   -1.53473680103090    0.65546702937167
O          -1.06698254373303   -1.15767393503672    3.04808688220872
O           1.13433488427317   -1.63659201307106    2.08646108433809
O           0.03177377599962    0.47618372327886    1.63660130629827
H           1.34626120320943    0.92792799705274    0.97235920553590
H           1.46397707501906   -1.66722958315521    1.17014848594846
O           2.17107645812347    1.17994828463032    0.45509761704767
H           2.76548558942346    1.58315404651009    1.08894496051985
O           2.15653580709597   -1.36145313992093   -0.39432006047087
H           2.28501420633008   -0.40508381073958   -0.21796404351425
H           3.02798074052430   -1.76126192485427   -0.39719763271164
O          -1.74815479531081    1.72214906308971    0.23404374844827
H          -2.22551755835488    2.30832600059480    0.82252360453567
H          -1.11328301165810    1.21854588774652    0.81033546931965
O           0.37554244403319    1.83534626700938   -1.53061437123459
H           1.12087072488094    1.80977640910444   -0.90879005207047
H          -0.40813609232351    2.05414862356304   -0.99674631061997
O          -2.89657214913831   -0.48207241506753   -0.98910989489068
H          -2.71882918624957    0.39948693591387   -0.61750004268621
H          -2.61513665967187   -1.09476466424905   -0.29532519465375
N          -0.37591802975507   -0.69844515081861   -1.74119653667075
H           0.09118201366160   -1.32012848876336   -2.39016474292697
H           0.02212309005063    0.28250093152123   -1.76559888304152
H          -1.41071003951411   -0.64253612327558   -1.88283135534326
H          -0.32580494904962   -1.08002870702699   -0.74158231732072
