    26
        -50.46310216  Gyration_radius:  2.36999629386 Dipole_moment: 7.823
 S           0.29601022625371   -1.44849496922371    1.30009811437004
O          -0.77518984718064   -2.26192002556322    1.82669580883093
O           1.61256009848580   -1.67108673570648    1.80889661644498
O           0.38985510709863   -1.79807196700244   -0.27206429751984
O          -0.07150361016434   -0.01708714600338    1.30124644783277
H          -0.22099569722830    1.62520540868591    0.94774951645024
H          -0.48426683913544   -1.55130212324123   -0.62653305427587
O          -0.08118110301757    2.48800490686172    0.50285929437966
H           0.82565736515780    2.72181093566831    0.72467489089594
O           2.39931282092263    0.83124812731478    0.98809093474020
H           1.50858757227543    0.47134958728808    1.20035162147675
H           2.98898923850489    0.22910716747635    1.45051093582153
O          -2.73861547008227   -0.72667906444476    1.19200652328461
H          -2.08222262108197   -1.40244218292886    1.51683844572971
H          -2.44963332439337    0.09190773825880    1.60396232353432
O           2.10038831111476   -0.06848852185277   -1.48128108855650
H           2.41085984431604    0.35191539648206   -0.64142357609298
H           1.73838595102968   -0.92250428335448   -1.18894968077617
O          -1.92687166684939   -0.80678368103200   -1.23715002220249
H          -2.49312678786583   -1.42988319809094   -1.69514344451389
H          -2.31689990717334   -0.70988488789299   -0.30723746273650
N          -0.13964823275479    1.21360250778640   -1.80932587483834
H          -0.88630153475919    0.50515342539399   -1.70159826774061
H          -0.25694596232933    1.73851843955475   -2.66890016353427
H          -0.16307839682351    1.84689300369902   -0.95478595947710
H           0.81587446563773    0.69991217184356   -1.77958859150417
