    26
        -50.46578628  Gyration_radius:  2.71860034591 Dipole_moment: 3.974
 S           0.42411357337349   -2.10450830088368   -1.33673754877128
O          -0.65539839656375   -2.32003780215842   -0.37971018113120
O           0.01663524947493   -1.34129667398451   -2.49269579809277
O           1.60761350940180   -1.55951321613633   -0.67522660937287
O           0.83820500727085   -3.53751678370822   -1.87720268700153
H           1.08292946817518   -4.02301484334514   -1.09527956987845
H           1.08938888546603   -1.03958865867930    0.77291202060286
O           0.46559453693877   -0.75765862828747    1.48907338279404
H          -0.24788918039089   -1.40310444203687    1.39427068333207
O           0.53847093929685    1.43864793676116    3.17772365024114
H           1.45339945488192    1.59752888307140    3.41464008311540
H           0.52084071167346    0.58399011190484    2.71475289122524
O          -2.28811875097222   -0.44364199034380   -1.28898006989833
H          -2.00874368812946   -0.49852588977138   -2.20935172386883
H          -1.86085949146638   -1.22697662654076   -0.88105807666473
O          -0.82023821906648    3.21580338014351    1.63383978377212
H          -0.31805750042554    2.67726255402395    2.27953244451477
H          -1.62061575840097    3.49692722215929    2.07875367502625
O           1.37521846433298    0.85968063341425   -2.00421032937980
H           2.07250654869007    0.40044593991620   -1.52301594125005
H           0.87658403749393    0.12381910040282   -2.41915733032509
N          -0.51870640906346    1.19851317537048   -0.15552017019155
H          -1.35531561584146    0.73926645007968   -0.59799716225725
H          -0.15642274514703    0.53312878821789    0.56150605321364
H           0.22681438656920    1.29260104945883   -0.89245643380992
H          -0.73794901757019    2.09776865094766    0.31159496404916
