    26
        -50.45710282  Gyration_radius:  2.4062155941 Dipole_moment: 8.378
 S           0.12973289241464   -2.15482378668204    0.29471743144161
O           0.07711761367994   -2.01392205456875   -1.16752359812169
O           0.91401547739467   -3.23783476251541    0.77451713197167
O           0.55379093400873   -0.84989160193744    0.87593445783566
O          -1.34912651426837   -2.34897452471179    0.76490357254242
H          -1.82250521429007   -1.62018365075847    0.30529993742117
H           0.51465478226321    0.84862209893897    0.91405724876560
O           0.37828507383200    1.81888875078946    0.96257568919019
H          -0.20603381811012    1.93242186816439    1.71836971985889
O          -0.78347615618834    1.91196156352500   -1.38154482956863
H          -0.36040889839394    2.00353708487469   -0.48612124086151
H          -1.12750589859044    2.77271958429710   -1.62188782008102
O          -1.37889264957800    0.10501112260534    2.45012849541634
H          -1.84546097246005   -0.55440129361291    2.96586668455640
H          -0.64521532655791   -0.37539053311765    2.01000984696579
O           2.81749061994216    0.19615451655740   -0.01772199853350
H           2.85491943537065    0.99877211619929    0.50919905882270
H           2.15583997357939   -0.38026520913556    0.42359421572710
O          -2.39243948615230   -0.08222689898785   -0.09951276673888
H          -1.89614847054968    0.49458225310740   -0.69716480736294
H          -2.22110763657267    0.23642304771158    0.80506178446831
N           1.13813500667522    0.08574292139868   -2.09037654283086
H           0.66158212187625   -0.84702911240452   -1.73121792046722
H           1.47973077077165   -0.03732590688986   -3.03644384364367
H           0.43281073463725    0.83788008629882   -2.03218113428674
H           1.92021562525426    0.25955232085311   -1.41253877250048
