    26
        -50.47165507  Gyration_radius:  2.51598503597 Dipole_moment: 0.620
 S           0.26220912943839    0.13642749766873    1.99975603737487
O           0.97295285330150   -0.63871070186897    0.98350557106815
O           0.01473203181222    1.49473582134421    1.56407876037285
O          -0.91610124869469   -0.56019894141618    2.47078022765470
O           1.24447688441849    0.24899865600034    3.23529691814087
H           1.24953088866948   -0.64238553687866    3.56752306807524
H          -1.85325964806106   -0.90469776191165    1.20989397271611
O          -2.38445436702334   -1.06123815949868    0.38755432528189
H          -3.25270443243457   -1.33989109714105    0.68384758028978
O           1.95031357986611    2.61847650918927    0.06957175325133
H           2.27540026586958    3.42348222712568    0.47333543397331
H           1.27754458458893    2.25968419596978    0.68205970797966
O          -0.22610598444868   -2.45434735424690   -0.67707614676827
H          -1.11662789113134   -2.12823016075315   -0.47404921845305
H           0.34140853098592   -2.00932574160490   -0.02635069853278
O           0.65674807892459   -1.48113867749377   -2.99662244524252
H           0.37528364832660   -1.98407669277631   -2.19358129660973
H          -0.00889888155499   -1.64724412749297   -3.66502999437722
O          -1.61238915599113    1.37741334186138   -0.58595286977902
H          -1.20601296980857    1.64585396352279    0.25767736110350
H          -2.06557337379963    0.53866322400756   -0.38953185019567
N           0.81858069903090    0.62790004863685   -1.34772581587052
H           1.00290687670491    0.10100333844491   -0.45794640560439
H           1.46902643320820    1.41712752452469   -1.36510122361645
H           0.89995054951047   -0.02902165067859   -2.15160021443137
H          -0.16893709172946    0.99074023546585   -1.25431251779783
