    26
        -50.46144792  Gyration_radius:  2.58865585009 Dipole_moment: 4.285
 S          -0.43535134809902   -0.63131212340744    2.18298667292612
O          -1.28800982339346    0.53775748832601    2.14840012096176
O           0.31459056954897   -0.85083095813308    3.37686198181086
O          -1.42360583778757   -1.88818564526899    2.03625969717538
O           0.40186036261067   -0.68572502894994    0.96596632624258
H           0.54420296858673    0.98306324457648    0.78262572068333
H          -0.97997321862397   -2.51776112315981    2.59355726092074
O           0.44285113382632    1.93699026710288    0.58236556239906
H          -0.29067748702694    2.19769697052056    1.14972932975015
O           2.88373824404920   -0.52610305238978   -0.03834154025430
H           3.29698126318608    0.10584715116275    0.55295541505042
H           2.00840333137786   -0.71797452310544    0.34929865027700
O          -3.14634781574602   -0.17320605041155    0.43429811321348
H          -2.51695099184960    0.18178138285513    1.10209538364021
H          -3.53923311325747   -0.94291891306833    0.85067885871056
O           2.39960989052507    0.24393629112753   -2.54089823137298
H           2.42045607471214   -0.57044995837579   -3.04634682108055
H           2.66195699468329   -0.00861611213626   -1.62229962633551
O          -1.17274610817107   -0.95209103917679   -1.15306110738862
H          -2.02984122333953   -0.71371470355290   -0.72861413495916
H          -0.56127304279108   -1.04955529443751   -0.39357002227196
N          -0.00908276881565    1.23298908790256   -1.94281455117074
H          -0.57504483420264    0.33665674670055   -1.73261414984540
H          -0.48023486597488    1.84120493219647   -2.60191451561407
H           0.14018345207521    1.70288770952299   -1.01168724431620
H           0.93353817381007    0.92763324359647   -2.29591714915893
