    26
        -50.46896687  Gyration_radius:  2.40449108792 Dipole_moment: 6.644
 S           0.17909769249271   -0.31524236071259    1.74809576519156
O          -0.67031618327561    0.24953178659172    0.69277469443384
O          -0.23007234599282   -1.65775025918811    2.07775169995547
O           1.58464622067300   -0.22318859222777    1.34010642905271
O          -0.00845941001315    0.57099984192010    3.01314798506758
H           0.46065713926815    1.40057492553403    2.77525670406472
H           1.73237348620973   -0.51360142612209   -0.18967747679756
O           1.80482728237439   -0.70128893582333   -1.16961568394168
H           2.44851986635801   -1.40802264204549   -1.24124931856728
O          -1.95403292456272    1.19115380271313   -1.48235224438942
H          -1.92476478083348    0.97499835624172   -0.53649809716178
H          -1.25375053116230    1.85268339849947   -1.58650768418187
O           0.63284231260313    2.00525101531953   -0.76525603727380
H           1.35578802438185    1.51874015396851   -1.17038481694473
H           0.18486201703076    1.35375644590902   -0.17680418507590
O           1.53418546279776    2.38122779882521    1.87461013955334
H           1.20196722354014    2.68849836303262    1.01693917824509
H           1.96434676218182    1.53059628346184    1.68463819549773
O          -1.66419006553758   -2.57037800265165    0.13117265188678
H          -1.08263867157344   -2.29658635100217    0.89103147132320
H          -2.55402202288093   -2.34736184158441    0.41186847062122
N          -0.74825702109317   -1.14537588974602   -1.89716895738768
H           0.26547312549685   -0.97853360426265   -1.67767019936334
H          -1.14144017979413   -1.74232811523462   -1.10653321261547
H          -1.25549475831419   -0.21462143464569   -1.86287441149368
H          -0.86214774036945   -1.60373272676311   -2.79480104969065
