    26
        -50.45733018  Gyration_radius:  2.47861778806 Dipole_moment: 7.350
 S          -1.31903637232832    1.19432450623374   -1.27368022053531
O           0.14514682288340    1.19243590630995   -1.00112289777818
O          -1.67819397165368    1.94380441839597   -2.42581216818131
O          -1.66573267975675   -0.34153585657346   -1.51645427511270
O          -2.02503405892351    1.52142965047186   -0.04243899339984
H          -1.77642582304749    0.85603058766691    1.31252719565185
H          -1.09770360023441   -0.62273800490738   -2.26789981438122
O          -1.49411443754777    0.47763846422207    2.20622549376850
H          -2.21862405981833    0.66188728759023    2.80500150582048
O          -0.75103725618632   -1.72012249388998    0.66480326936689
H          -1.29329066053967   -1.39081446817360   -0.07110473309656
H          -0.97086404770186   -1.13965439758874    1.40825271956782
O           1.43405304367458   -1.08452832661100   -0.76192074323797
H           0.72857970411430   -1.50526594981160   -0.22208721778707
H           1.07050019147940   -0.18986691417421   -0.95755929071348
O           0.09900170065842   -1.46089413147899   -3.12930072210247
H          -0.12213602943453   -2.38012507234809   -3.29080728204812
H           0.79590219991921   -1.45089234025690   -2.44472444511140
O           2.75574570384781   -0.34809253680349    1.41821175029455
H           2.45989513119884   -0.67190979071361    0.53057995013483
H           2.72414530081010   -1.10774308823839    2.00210520070485
N           0.85167970353443    1.53177701292543    1.43853022879654
H           0.54786463693400    1.48367205316553    0.39417497285011
H           0.02846097493762    1.20542865376290    1.98412262273756
H           1.65833287795529    0.86632178796851    1.55489339071641
H           1.11288501521939    2.47943307284534    1.68548451307571
