    26
        -50.42864427  Gyration_radius:  2.6449041705 Dipole_moment: 8.386
 S          -2.39379270223995    1.52182484049849    0.97181750774614
O          -1.90615790868904    0.32776584240124    1.63534828355566
O          -3.49258143268008    2.18344544493341    1.56621603630794
O          -1.22095064862783    2.51958570165347    0.83389191157577
O          -2.71039930139690    1.14572221699748   -0.49913752778843
H          -2.41880935231592    0.19162310459884   -0.69207230054283
H          -0.42489418426632    2.07878198215216    0.39407320468534
O           0.51726634031163   -0.65574942567078   -1.51249644910882
H           0.61275224242388   -0.51129203838983   -2.45181488029806
O           2.33333087011616    0.17162227766431    1.50133944555431
H           2.80404691101740   -0.38078202318022    0.84731394232045
H           1.94959595258081    0.90265357760615    0.98620542300073
O           2.84615764863195   -1.43890837228592   -0.60514265517093
H           3.48788920638270   -1.47378813034823   -1.31367616243065
H           1.97489116019716   -1.18237975745687   -1.01684451032814
O          -1.91019124068656   -1.18329689377007   -1.11818331024597
H          -2.34230655134532   -1.40958718593157   -1.94252170969937
H          -0.92211294780025   -0.97995195855590   -1.33959384553563
O           0.80517338130575    1.50681919620661   -0.34725537925634
H           1.02692871562459    2.16674523513916   -1.00401140717357
H           0.65688066492817    0.57699440009390   -0.88111773310591
N           0.14295120563356   -1.23830583592896    1.20821086096213
H           1.02344596930852   -0.71212857539609    1.51776356667754
H          -0.70570312147458   -0.63204437311369    1.39951296607451
H           0.21758267813645   -1.36027676022181    0.19066591400359
H           0.04900644496051   -2.13509247973297    1.67150882821212
