    26
        -50.45806723  Gyration_radius:  2.80158043904 Dipole_moment: 4.104
 S          -0.75160482332117    0.07912018667273   -2.79286406327191
O          -0.36090392183822    1.42435070850445   -2.37307717784238
O           0.34438317973367   -0.78287059383746   -3.11875115965601
O          -1.65217333913219   -0.51725044424825   -1.79022888797843
O          -1.62721312989795    0.29092874937815   -4.10126569216150
H          -2.04921756279773    1.13219068830134   -3.95182014585835
H          -2.01107640681934    0.06015541714958   -0.30555993623494
O          -2.09486488611290    0.39640607889556    0.62224787002983
H          -3.01882417160711    0.61377604963208    0.74768548435020
O           1.53136996996114   -0.26144825589576    3.19155833392390
H           1.28506420451680   -0.14229968968435    4.10921385050993
H           0.78111510695205   -0.74096007128903    2.76904996081216
O           0.33099532981469   -1.81716468672026   -0.63346330580110
H           0.88046644035611   -1.99206125998790   -1.40590979552379
H          -0.52049806728141   -1.53892742936885   -1.03606498109311
O          -0.54585582306220   -1.45808198393252    1.99812241863903
H          -0.20972671820736   -1.93417975863752    1.22805165784553
H          -1.21725240963969   -0.84850044112057    1.64933798473723
O           2.56013951239032    1.60549632708315    1.58979234315418
H           2.24189970954018    0.97300151393839    2.27320243667673
H           3.47424370975094    1.37729152822003    1.41556799820881
N           0.54765059284706    0.83034979516176   -0.00879882056097
H           0.33173808690443    1.22484604799723   -0.96831024638718
H           1.37291892287029    1.25893323165283    0.46985216541595
H          -0.29944685981259    0.96554552163453    0.55608139988920
H           0.67667336393585   -0.19864723949431   -0.13364970182820
