    26
        -50.46297848  Gyration_radius:  2.58352737776 Dipole_moment: 3.178
 S           1.04666562449460   -1.75684120002349    1.01398774889861
O           1.26600190457926   -0.52839723915496    0.24767023127367
O           1.90011893566291   -2.84489109978098    0.66292022311651
O           1.44435277950031   -1.36943048218003    2.52703734262085
O          -0.38199871059600   -2.06187717939568    1.04362670670280
H          -0.79145638721295   -0.66883392600832    1.84192050599177
H           2.12995549696742   -2.00847359809623    2.69120283317718
O          -1.22468110285752    2.10895166810926    0.53443064593275
H          -1.90450765737224    2.69582350164873    0.86658795310016
O           1.49471381791295    2.14805651805647   -0.35658504921249
H           1.64805159604548    1.23866653169079   -0.05436124506677
H           0.63348993506358    2.39414346717807    0.00887232613003
O          -0.81602852626729    0.20034313355409    2.29603438820383
H           0.01251781528801    0.22895254455201    2.78120007523636
H          -1.07180730562313    1.42930955283704    1.24146881079301
O           0.94311374631422    1.62359354844449   -2.92360602258497
H           1.71700823464876    1.23459426365125   -3.33302692543678
H           1.24402574532712    1.97637512898980   -2.05146809397388
O          -1.90719866377782   -2.17613140699905   -1.13116330471140
H          -1.34370762286029   -2.25502528498183   -0.33115745436725
H          -2.69528105381309   -2.69060541974468   -0.95289630849037
N          -0.69520038762950    0.21372390432077   -1.34933669343073
H          -1.32946212069496   -0.57587066984331   -1.54626421106416
H          -0.24155747968919    0.63588056942679   -2.18812389459213
H          -1.16053179010187    0.96055185578642   -0.80655248811056
H           0.08340317478743   -0.15258867226280   -0.73241810262249
