    26
        -50.45804162  Gyration_radius:  2.44155084452 Dipole_moment: 7.519
 S           0.46924420258731    0.47217184049811   -1.86562483769191
O           1.54151537898181    0.49460632115824   -0.85930124356868
O           0.90269985222634    0.72875338577502   -3.19362319308890
O          -0.11581839772186   -1.02842267658392   -1.78577801066135
O          -0.66645814643947    1.27294921948586   -1.40461751320581
H          -0.55645783938136    2.23167316759279   -0.07602317566441
H           0.71155505069456   -1.57800140395918   -1.70602378525068
O          -0.58228489337369    2.71418845948240    0.78737134266162
H          -0.13149552593716    3.54515059966557    0.63420057486068
O          -2.95987317673861    1.19442022567868   -0.03857423917891
H          -2.36756367663718    1.29233698635964   -0.80902750475978
H          -2.71992215804021    1.92661303316830    0.54062208064614
O           1.37365824197432   -2.22866070247912    1.58704308443026
H           2.06685978026083   -2.56330314254041    2.15809433126295
H           1.29844814999223   -1.27968149093949    1.76854414086533
O           0.69594154733679    0.47000215958489    1.55186100219603
H           0.30899456359892    1.36021993402402    1.64439006172502
H           1.12044147605976    0.50840566840428    0.64403234184041
O           2.12759467374984   -2.06326945114364   -1.09495851531854
H           2.34953683797057   -1.11634343698174   -1.04425802180486
H           1.90615721077384   -2.32385415115282   -0.18270388925261
N          -1.37339080721832   -0.83138473643000    0.56657217216630
H          -0.58209615073072   -0.36574482702239    1.10978342919305
H          -2.15237039861317   -0.12256363062977    0.44335564734688
H          -0.98502867898434   -1.02044989668397   -0.38774777277562
H          -1.67988709635623   -1.68981143434832    1.01239148305850
