    26
        -50.46633743  Gyration_radius:  2.38501554541 Dipole_moment: 9.404
 S           0.18392912090919    0.07249604079195    1.86154813086378
O           0.53467793019593   -1.08446905184696    1.03373361784093
O           1.07314281921643    0.30871530483439    2.95009900985546
O           0.00512339656993    1.26184376578709    0.99931309916172
O          -1.25439041274120   -0.23798271689135    2.42344961557866
H          -1.74112009425776   -0.54355852998176    1.63905864052333
H          -0.97926853322006    1.41761465391639   -0.13816905090623
O          -1.62530736917495    1.48808913584656   -0.91677691436898
H          -1.96318816933128    2.38427061753152   -0.88302132022916
O           3.11426064701797   -0.51776895426907    1.23150201313079
H           2.27487266511018   -1.00318291464021    1.13952328148229
H           3.01030680501869   -0.06735776650887    2.07762607095400
O          -2.69492152577793   -0.74580984834920    0.14465462438484
H          -2.43863688177802    0.08291298908512   -0.31266499842259
H          -3.61310283116424   -0.65539863532697    0.40599136280361
O           2.11460309385106    1.16343247250535   -0.57035770260993
H           1.40878005118001    1.38902924466652    0.07328202926376
H           2.70131854601412    0.55954003128785   -0.05950028557134
O          -0.52502094248133   -2.08018065070820   -1.10645843800483
H          -1.45493605880232   -1.94524597745977   -0.88707785681810
H          -0.05731418371688   -1.87652048798575   -0.26054754935119
N           0.38944669842270    0.12318855689084   -2.20246855778728
H           0.65075906369747    0.10463612881075   -3.18160877339094
H           1.20897890658043    0.47740034427409   -1.58003430172388
H          -0.40006312473911    0.76440769961095   -2.02613743099065
H           0.07707039341633   -0.84010145185798   -1.85495832567323
