    26
        -50.45677286  Gyration_radius:  2.41355367968 Dipole_moment: 4.289
 S           0.94534688581247   -1.76553043720581    0.48882927035305
O           1.07311907129420   -0.88885175943004   -0.70170747779318
O           1.84705927693873   -2.86694853578405    0.46306555262919
O           1.20225371037188   -0.85708775224300    1.73120559222799
O          -0.47191829177075   -2.15930317229347    0.63604837396931
H          -1.09994201723247   -0.75513072336885    1.10725862680116
H           1.83972277862441   -0.13070489198000    1.50106877190279
O          -1.57074383498353    0.09853062230167    1.29169346380524
H          -2.03786879516813   -0.03578257068636    2.11761075516507
O           0.42796774357606    1.53634728233830   -1.46062350766024
H           0.73372234045622    0.65754003834451   -1.12562663086188
H           1.18235619954269    1.91711756368042   -1.91184829963014
O           0.13997164777139    2.29587341981152    1.14904948105441
H           0.15594282271413    2.28421531758582    0.17660073045503
H          -0.43258738018338    1.54751104281288    1.38804912194441
O           2.58135989851994    1.30716817304855    1.36293196148529
H           1.72126285314616    1.80164843761732    1.32755198265653
H           2.98228798500948    1.52132570596535    2.20707487345136
O          -2.19677950394640    0.70162052795563   -1.30036990759313
H          -2.17433868526542    0.60470197065556   -0.32936956764384
H          -1.41302393356924    1.23422543589648   -1.51103935585434
N          -1.11811374542967   -1.63346579187347   -1.77437356098082
H          -0.10525117788412   -1.33088070465921   -1.70195287446052
H          -1.70405639459447   -0.73918625482236   -1.73023474582479
H          -1.32590107751493   -2.23319090680194   -2.56401756037333
H          -1.18184837630041   -2.11176204684279   -0.83687504925223
