    26
        -50.46828873  Gyration_radius:  2.47655931227 Dipole_moment: 1.533
 S          -2.01735515230948    0.30707463610308    0.57488125216564
O          -1.39658847755209   -0.18978455454682   -0.64499891035986
O          -2.17242236784014    1.74414719519441    0.58190595333139
O          -3.49360594326544   -0.27852984292166    0.59632464435187
O          -1.33704734341278   -0.21443815646012    1.75260540653655
H          -0.11929523645697    1.09640096100614    2.06658936095276
H          -3.98802524625877    0.51485622031840    0.77210866273764
O           0.18934354165959    1.94734826393830    1.71091675452037
H          -0.62313375703590    2.27220529986940    1.27818604174985
O           0.08723611928377    1.21801159628720   -2.30632858241988
H          -0.62092269273169    0.86444030415870   -1.72414729717177
H           0.32174356933122    0.47721741572000   -2.87425311615221
O           0.28883692864765   -1.78128830048702   -1.98221049869051
H           0.01816575807978   -2.69790144759585   -1.91032338163627
H          -0.37144019042014   -1.27217659086312   -1.46898885365666
O           2.22841413505050   -1.26251604811080   -0.17914288245947
H           1.70320474821484   -1.51257222830308   -0.96735195743414
H           1.69764532773793   -1.62383699294596    0.56136598642019
O           0.40390534647630   -2.17382180657418    1.55774619293459
H           0.50846269698332   -2.45347178183227    2.46816008752057
H          -0.29479157373769   -1.48136662379913    1.56925105235004
N           1.81900087310182    1.31706146074121   -0.28566387079637
H           2.07292198599539    0.27739356821823   -0.18332918203066
H           1.21024336774281    1.39881058386903   -1.14460824312046
H           1.23575857009631    1.61450838608781    0.54818582456996
H           2.64974501263904    1.89222846292849   -0.36688046422403
