    26
        -50.46028844  Gyration_radius:  2.63187885579 Dipole_moment: 4.044
 S           0.56235053985780   -1.73073249816303    1.41791084981966
O           0.40722596359022   -2.50960353871172    0.20319239935021
O           1.67567156368427   -0.81006779595593    1.39562983806293
O          -0.69468233408720   -1.07320317050143    1.78750014697229
O           0.86338866047862   -2.78127939267201    2.57119153581149
H           0.32710082781318   -3.52708738376361    2.32048630540928
H          -0.24048096183530    0.49141161688008    2.34575167268542
O           0.34221817726890    1.26867418991268    2.45302267975912
H           1.21141696866973    0.88029895769688    2.28128548879412
O           1.51025421487796   -0.68461297982647   -1.25049260463885
H           1.07216061067144   -1.51275791529407   -0.94187091650894
H           2.02747184501617   -0.44671031034543   -0.46571593375437
O          -0.21049934600167    2.92712215167443    0.49387753918695
H           0.04855095169182    2.35028729806048    1.26354798121877
H          -0.83245782569027    3.56670289433736    0.84192275327941
O           0.53331698410417    0.40102975036023   -3.72346148331194
H           0.75367118720655    0.04221678553143   -4.58349130827340
H           1.08087671095393   -0.06898637502165   -3.07871742170111
O          -2.45566321175628   -0.51718680773135   -0.04707607014728
H          -3.20149498977225   -0.19008572191311    0.45866811971151
H          -1.80546432030379   -0.84933340474700    0.62104415438993
N          -0.61094895026963    0.97241895251043   -1.28053800884810
H          -0.47639075633370    1.83114530497308   -0.69526780538595
H          -0.69580916092708    1.18446039037869   -2.27541335681242
H           0.24056664162048    0.35668185427714   -1.19153344630382
H          -1.43234997050921    0.42919716804054   -0.92145312876449
