    26
        -50.45544140  Gyration_radius:  2.50331700176 Dipole_moment: 5.874
 S           1.77480329333832   -1.14787750861495    1.06820140988451
O           1.66549815961161   -1.58849314796198   -0.33563896760026
O           2.54806070639753   -2.00166215073106    1.89971632881357
O           2.41769770610408    0.28998496415909    1.02872253390951
O           0.40518873837862   -0.91060353194796    1.59983784773389
H           0.12579554419499    0.61409270095194    1.40992434422112
H           2.56850160109334    0.51437073698614    0.07316631635651
O          -0.06744523429141    1.57760367787741    1.22099673818270
H           0.67841217664796    2.04793186569776    1.60039248266553
O          -0.11777229500768    1.66804671094438   -1.44268137864323
H          -0.25991283813869    2.57456450999240   -1.71947642938571
H          -0.09066484664397    1.67446415342771   -0.45434731790362
O          -2.74895692452677    0.96840147499497    1.01801594313621
H          -2.97754160307574    0.46180333264968    1.79853314860579
H          -1.86402809542520    1.33349025516686    1.18187938978014
O           2.45166527012248    0.60633603126235   -1.55516414328710
H           2.27930797840667   -0.34835357023106   -1.47332634037240
H           1.58476221212096    1.01350256043808   -1.72083987688676
O          -2.21506241015538   -0.09972987599993   -1.41895881711240
H          -1.50095915154475    0.51730010415935   -1.66232270638029
H          -2.62015711269141    0.29396517583993   -0.62072988011214
N          -0.84616764504139   -2.04384474413365   -0.31871359953253
H          -1.24325162994759   -2.97624387734787   -0.31674621581298
H          -0.65314181380958   -1.67225986550234    0.65098111986224
H           0.15499735080616   -2.02945906455427   -0.65996081332103
H          -1.44962911692934   -1.33733091753266   -0.85146113679830
