    26
        -50.46453046  Gyration_radius:  2.44500950823 Dipole_moment: 4.797
 S           1.17019750318281   -1.52882852810828   -0.06375173787430
O           0.02274052129081   -2.00086201834793   -0.83144040981110
O           1.72640985645104   -2.49868798902880    0.83437305747268
O           2.32153251079262   -1.24310988179820   -1.17113968475081
O           0.92853670866590   -0.22075012529869    0.51143989081252
H           1.18917326642207    1.34025404190010    0.44213373421488
H           2.67670725529491   -2.10824932953114   -1.35439910145195
O           1.15962457602197    2.32836323102010    0.36372742045224
H           1.64207046714670    2.66605619764373    1.11954646940334
O          -0.86496434417134   -2.27698403006444    1.66413802960743
H          -0.80098668955462   -2.29993865121942    0.69441247620592
H           0.03194233525147   -2.49222259546870    1.94696288631619
O          -2.05226061344053    0.02936047826883    2.21940457386439
H          -2.94611248687259   -0.30233166546993    2.32449898046192
H          -1.49553924902018   -0.77493781795035    2.07979571819214
O           1.38797764765336    1.17737884760016   -2.27039735039990
H           1.82939503975136    0.37499724680359   -1.96076880414073
H           1.45002923931206    1.81003860408953   -1.54356056740717
O          -1.06018416336975    0.13448733719946   -1.91093601933194
H          -0.74627337868059   -0.72876759862096   -1.55431974940788
H          -0.24838128515729    0.55569229463402   -2.26857466158864
N          -1.48308284828534    1.63502649103194    0.15423857304859
H          -1.36814556725169    0.98752920452484   -0.71819944911359
H          -2.20829187127970    2.32736999200836    0.00320110779780
H          -1.70304351951041    1.02635793453230    0.98478827224730
H          -0.55907090064825    2.08275833966241    0.30482631518159
