    26
        -50.47207010  Gyration_radius:  2.3972627792 Dipole_moment: 3.395
 S           0.51721536501579   -1.28357073277971    1.13893384197978
O          -0.18767503040339   -2.40389199488708    1.69038387390511
O           0.52121860479881   -1.23378969568489   -0.32237264998176
O           0.13985049186529    0.00253990642991    1.70040538774873
O           2.05889670095800   -1.49795647453874    1.53306319150971
H           2.02052845787282   -2.24117084530174    2.12642199809672
H           0.25006857915196    1.57345700876175    1.04902203641952
O           0.43833312169555    2.29075154499246    0.40793827356736
H           1.30275997365132    2.02911887515584    0.04453866415804
O           2.43381866448514    0.61644139028740   -0.41067509882109
H           1.77393813086568   -0.09849362541394   -0.31052858946988
H           3.11826563672863    0.41440992617635    0.22945986998960
O          -2.37742447715804   -0.82689499230620    2.12585397672811
H          -1.58399254838799   -0.27441060504594    2.21151409241483
H          -2.03163521201134   -1.72447867754328    2.21587584808641
O           0.80956027942992    0.12022278707776   -2.73094253187650
H           0.66211516462345   -0.62396392951635   -2.12678090212653
H           1.63981222041566    0.50903944283462   -2.43188816715906
O          -2.14048571698543   -0.73813401905894   -0.52669298454773
H          -2.45283204287144   -0.74062780538523    0.40710260514636
H          -1.26319702048500   -1.15327488780402   -0.50117289540923
N          -1.15097137000674    1.48304883910532   -1.51911366891808
H          -1.69780062062324    0.66414139892941   -1.10928869862198
H          -1.76046100929538    2.14621125795101   -1.98337169699086
H          -0.58804717241050    1.93361687618802   -0.72906503182768
H          -0.45185916889547    1.05765904920970   -2.17862075425207
