    26
        -50.45515800  Gyration_radius:  2.5010645834 Dipole_moment: 6.311
 S          -1.57134373592076   -0.96636055751694   -1.31930998850876
O          -2.00417169376159   -2.33190378883451   -1.16966412873213
O          -2.40240959992663   -0.06948948323598   -2.06121527951517
O          -1.54715829838768   -0.34829078840178    0.19156014935979
O          -0.15397193144908   -0.87516215726959   -1.72365262817603
H           1.17609468659791   -0.70622210675287   -0.89106962090727
H          -1.14668009907587   -1.07106242936312    0.70284028153670
O           1.96974101215968   -0.42575995928139   -0.35589761229019
H           2.72645229859174   -0.50889843856208   -0.93733212422322
O          -0.31236916045266   -2.65379253191013    0.76300419616189
H           0.52325641885897   -2.87337446552428    0.34383990009574
H          -0.99360743386706   -2.78834649017687    0.06098380252532
O           0.54072070902790    2.21020948480216    2.53785187160170
H           0.45681736381505    2.50572644687979    3.44441509495378
H           0.67323082639108    1.24479545544760    2.57317628553634
O           0.95956821335094   -0.50581215932422    2.24761941244309
H           1.50979550297427   -0.54787443647499    1.45244169460968
H           0.41708025788384   -1.30119033247614    2.22387435872642
O          -0.39084155487132    1.63354200079897   -2.59352870153330
H          -0.13807952987001    0.69138641957074   -2.51935716071153
H          -1.35214809313053    1.56425216995547   -2.67745646721608
N           0.21970509362951    1.66515324153630   -0.05282690281530
H           0.01397629448005    1.99396550184875   -1.03652339506404
H           1.09065809887776    1.10264662834453   -0.07464199025687
H           0.28227465017620    2.36793417666819    0.69180678703179
H          -0.54659030610893    0.99392861911337    0.17906219542380
