    26
        -50.47513794  Gyration_radius:  2.42371044133 Dipole_moment: 3.737
 S           1.34996772088878   -1.26263492578862   -0.38566338450353
O           0.78657523300625   -1.36277549769410    0.95747585477883
O           0.36555102335647   -0.82055024432579   -1.35075127698608
O           2.56964213138538   -0.47884070982826   -0.39691152173210
O           1.76813158335984   -2.72607253905626   -0.80545401571876
H           2.59200180566231   -2.80320851506703   -0.33861124558473
H           2.28975673729809    1.05860356546746   -0.06213591271510
O           2.03848654027591    1.99666302175107    0.14528604401758
H           2.86311235860189    2.47487269872479    0.24558986113700
O           0.13237859702662    1.81456605457752   -1.83274187736533
H           0.85166484675544    2.11727407673427   -1.25336631475196
H           0.26727361163709    0.84951763614739   -1.90225512626888
O          -1.61478707049791   -2.39013673110296    1.40444435928386
H          -0.68639966319419   -2.11499450639889    1.24947594993919
H          -1.81605901337216   -2.14142635598592    2.30804313595272
O          -2.26610370605107   -1.06589316211712   -0.84750224402721
H          -1.36489084411996   -1.12673727919199   -1.21906169943112
H          -2.24252837131690   -1.64654817194471   -0.06085235179521
O           0.02085629626023    1.04741011208419    1.75763440189733
H           0.29224692024078    0.12039852812456    1.58576973101777
H           0.74579775495348    1.57852179090862    1.38849169594197
N          -1.82057254213468    1.39979521971398   -0.10749184755090
H          -1.16731534260277    1.71949202649434   -0.88004067087436
H          -1.21021932269374    1.30323225505249    0.75361083342217
H          -2.59193918860688    2.04050307984431    0.03495391906644
H          -2.15262810612391    0.41896854286964   -0.38793628715046
