    26
        -50.46880499  Gyration_radius:  2.43121856403 Dipole_moment: 6.457
 S           1.00372486413575   -1.23082675938068    0.35004491141509
O           0.48107345230959   -0.88753775053232   -0.97511007027823
O           1.89899601085530   -2.35119044927782    0.33362939544828
O           1.83829736857525    0.06314304592778    0.78790320095043
O          -0.06616247710940   -1.30019114409589    1.33258811096743
H          -0.35894514995038    0.19568356018469    1.89071410064198
H           2.60974712841123   -0.03111177048066    0.19896524202374
O          -0.45528812337783    1.15893247320073    2.09330161243590
H           0.44577791636529    1.45388867239020    2.24506313146537
O           0.93737260172683    1.62741418648327   -1.56664925924040
H           1.77113173143658    1.82454429984892   -1.13505485543609
H           0.79913615496659    0.65536568078227   -1.45606943835304
O          -2.67384240703216   -1.81328432321491    1.06084312699290
H          -3.07524308114172   -1.56302190457681    1.89453707705579
H          -1.70805239130159   -1.78191284800991    1.20586125852829
O           3.37403291655710   -0.80205673668333   -1.16935991592575
H           3.04941203230597   -1.60973696883007   -0.72064447181862
H           2.92204138845258   -0.78282256382895   -2.01706716430649
O          -2.15450208260447   -0.41683854585769   -1.17990057256131
H          -2.54130476966399   -0.96091957137846   -0.46482530039089
H          -1.23150963684600   -0.73312843331674   -1.26055762482521
N          -1.39117583414054    1.89208853069667   -0.28516595240339
H          -2.01282431658488    2.68814169512861   -0.36681947491726
H          -1.84269043687850    0.98147724661675   -0.66624530343129
H          -0.51343132433796    2.01693174819703   -0.84448803447259
H          -1.10577153513136    1.70696864000525    0.71450626044464
