    26
        -50.45938740  Gyration_radius:  2.57821146096 Dipole_moment: 3.131
 S          -0.33414134464466   -1.98929932714273    1.36774857292473
O           0.57908727017889   -2.32356860474908    0.27857360911591
O          -1.29868865378551   -2.99614853976927    1.67682877348603
O           0.59922618697533   -1.85845923712131    2.67882044810332
O          -0.87463817119530   -0.64596797539827    1.16436918747058
H           0.51875415234449    0.08168530338504    1.34345750844317
H           0.35403399222479   -2.65700114433766    3.13338296851600
O           1.38281877580020    0.55528725480745    1.45234345669831
H           1.85582628621142    0.03520709629368    2.10482553877851
O           0.25914547206401    2.88611858054318    0.46079643493085
H           0.65044070533449    2.17199607422631    0.99320707614113
H           0.03691153258296    3.59462126095415    1.06611905621066
O          -1.98813382977819   -0.15197179486545   -2.30596206671036
H          -2.64774701735400   -0.81339621524252   -2.09004705284206
H          -2.05792599133320    0.53313728888451   -1.58634311711161
O           1.95270178083736    1.19366693694629   -1.12186508629112
H           1.98261634245089    0.90654703230997   -0.18801014456096
H           1.44717348532157    2.01409042803914   -1.10478282586791
O          -2.00618501633948    1.38424699059106   -0.19024321710717
H          -1.27982812302451    2.02375066737814   -0.10807070143715
H          -1.76049566847836    0.65044980374044    0.40029687447294
N           0.52801324325234   -0.92220256979876   -1.90471504463638
H           0.92588366121636   -1.45226817462111   -2.67238271400092
H          -0.46834956593268   -0.64290353932407   -2.11984312154915
H           0.53768210752798   -1.51640052985544   -1.01532055036735
H           1.10581839756310   -0.06121706587738   -1.71318389281601
