    26
        -50.46728897  Gyration_radius:  2.49353511633 Dipole_moment: 4.061
 S          -1.32322712973492    1.50192934229376   -0.46959708374802
O          -1.95550045888786    0.20598599722225   -0.59202695593935
O          -0.56030812935768    1.60680346966054    0.77790207563253
O          -0.54042284068877    1.90793332699481   -1.61330931204710
O          -2.49941004140613    2.56227869037999   -0.34804523263106
H          -2.07112554688826    3.35327656880844   -0.65864814605744
H          -0.57889964535836    0.60607433186495   -2.68998363371272
O           1.04322573719905   -1.53373918447394   -1.56761354194452
H           1.67621761521254   -1.99350337684571   -2.12057297999359
O          -0.89268178052614   -2.07125962949213    0.29489237502584
H          -0.12842878010247   -2.10818143149297   -0.30694258257065
H          -1.44877135774966   -1.35028232034452   -0.06621720608949
O           1.87774902692789    0.61949575067510   -0.06392624334556
H           1.06583930812651    1.13558151779059    0.05777663951180
H           1.64537912131238   -0.12208193559966   -0.65129673941121
O          -0.76528607747996   -0.30306596778544   -3.00620243776296
H           0.39123481179993   -1.09995411855453   -2.18576563552585
H          -1.57579269841805   -0.53339548216959   -2.53751448533707
O           2.43606205553830   -0.29496635602289    2.32990415766784
H           2.88105653195579    0.40782515211192    2.80533467464484
H           2.36738015536802    0.01854359667658    1.38750312389895
N          -0.21506978707984   -0.51143381946865    2.27911456884872
H           0.82120632408944   -0.51502045852995    2.46404763146340
H          -0.46024591871878   -1.28785881064188    1.58434842217221
H          -0.75584116569570   -0.59012754249357    3.13233944920485
H          -0.43433930940532    0.38914267945149    1.76449910801802
