    26
        -50.46769594  Gyration_radius:  2.5465482291 Dipole_moment: 3.837
 S           0.53096678082252    0.65365362218310   -0.71449992759806
O          -0.86224720398167    0.35376108588141   -1.03991388700804
O           1.14834885380997    1.56938742215069   -1.63259069316399
O           0.48410149959789    1.34039579806955    0.72363410078292
O           1.29421927824128   -0.56707989551910   -0.48586367367711
H           0.65703169231895   -2.05950641913894   -0.82035854690622
H          -0.24800785564616    2.02073824451735    0.57744245771905
O           0.26658649205526   -2.96423359924010   -0.86025341236252
H           0.22408461952074   -3.19349210560279   -1.78924494259777
O           1.97832487125685   -2.30587111853733    1.43540254899715
H           1.64814813975503   -3.07620245852553    0.95923551351268
H           2.09001419985356   -1.62471452020262    0.74609549020895
O          -1.77989798536749   -1.66309303176915    0.34514786703609
H          -1.60203645077649   -0.88502228986697   -0.23779752536413
H          -1.26390885238541   -2.38126276017655   -0.06798162571819
O          -1.49133725803358    2.73875586552809   -0.02143800415645
H          -1.08643003022546    3.38282395589716   -0.64279279212215
H          -1.68579360184062    1.95094470564433   -0.55622022204831
O          -0.01058140943410    3.91918271465926   -1.89804315658771
H           0.53791168858397    3.10457009322766   -1.83907039537504
H          -0.23170323900357    4.02069771569749   -2.82519972770151
N          -0.12470903694408   -0.86451502006774    2.16609771657119
H           0.15129711310576    0.05386627151244    1.75999277520109
H          -0.42441634791384   -0.76801358975595    3.13039392970929
H          -0.91129155236577   -1.24890252298227    1.52103007690975
H           0.71132558503340   -1.50686815357292    2.06679603570370
