    26
        -50.46904331  Gyration_radius:  2.42803646634 Dipole_moment: 1.335
 S           0.63942446971225   -0.69543668095963    1.81851750654731
O          -0.80191026980576   -0.52924588209799    1.90091682908386
O           1.04857790504879   -1.89479702431077    1.12762436335790
O           1.28263804643878    0.50049600738702    1.27311056564374
O           1.13615289902751   -0.82847105845798    3.31632756412281
H           0.50983615047920   -0.28964314123156    3.78824719691653
H           0.66266965359679    1.89715735367880    0.63421410582715
O           0.24758348031913    2.67463757274764    0.19697380230109
H           0.69431334365387    3.45049721511970    0.53745414835654
O           1.75464995524463   -0.49781503129268   -1.12299468535884
H           1.99174886535028   -1.39903947667787   -0.88398659237039
H           1.68999512553834   -0.04200207735890   -0.25627438345429
O          -1.94044534814357    1.01834023954178    0.05993788488487
H          -1.62980169997461    0.48895406697106    0.82494270953617
H          -1.39665789278934    1.82023170022690    0.06522014953258
O           0.42715696540907    1.67761015935937   -2.44800359405659
H           1.27297604853268    1.22968469633892   -2.36098944874414
H           0.31226254746527    2.17622812392891   -1.62613348679956
O          -1.24674740143653   -2.64282497636969    0.09065546212541
H          -0.34583976277262   -2.55019797962282    0.47185814308460
H          -1.81323925131995   -2.22540758880592    0.74781063062408
N          -0.90592100830110   -0.67797564545029   -1.66004310969791
H          -1.12751780939925   -1.57405238095699   -1.14905474741488
H          -1.37571505070495    0.10612551182114   -1.10694051805928
H           0.13082013190656   -0.52412541122379   -1.61405076019455
H          -1.21701009291785   -0.66892833216645   -2.62533972583406
