    26
        -50.46697172  Gyration_radius:  2.58581145145 Dipole_moment: 4.041
 S          -1.11670954040879   -1.50807054842667    1.16021090994312
O          -1.77158030697936   -0.56420091511528    0.24897732449199
O          -0.41546838176750   -2.55243077236837    0.46755608290235
O          -0.30103444192165   -0.79726027399671    2.14040800038286
O          -2.28589339186895   -2.20286460187747    1.97652804709511
H          -2.73822632666906   -1.48860485154781    2.41660908623388
H           1.18372573886217   -0.40334798014277    1.33566562310977
O           1.81054161825415   -0.02558452906302    0.68684316791648
H           1.73816989909200    0.93877713337376    0.77282583142644
O           0.93855370156338    2.63520773879979    0.51899207241022
H           1.14902395047813    3.46620250620362    0.94658767787646
H           0.09161471793789    2.31780778006765    0.94100652338930
O           0.29076414894372   -2.91525940466279   -2.07273069194591
H          -0.06629091842235   -2.92934275376983   -1.15905098759019
H           1.05642407850884   -3.49192445948964   -2.05800637787828
O          -1.19318854978585    1.62761305761160    1.65762717388958
H          -1.71561792410887    1.20670075190084    0.95778333451943
H          -0.78799837914800    0.85159998705334    2.09691328786510
O           0.67673445275740    2.27883142793864   -2.17680479820662
H           1.47101729608622    2.61754986615854   -2.59164579853813
H           0.74480567939195    2.49619975501152   -1.22519212097618
N           0.25016294967669   -0.30553434871594   -1.44181608421606
H           0.34554943175950   -1.18500846952495   -1.98506958115543
H          -0.66102599000051   -0.35487981589024   -0.92736421461551
H           0.99348928063255   -0.27691887050350   -0.68823776958443
H           0.31245721723599    0.56474260088852   -1.99861571872546
