    26
        -50.47194147  Gyration_radius:  2.49783804381 Dipole_moment: 3.377
 S           0.74292717629109   -1.42673011163580    1.51677087549379
O           1.56690704636892   -0.35919465783286    0.96073374395859
O          -0.13629791864404   -0.94051385193350    2.56249092637445
O           0.06241996607968   -2.19061071932137    0.48967803203241
O           1.74170085203543   -2.43948013384594    2.21489085897090
H           2.00898621161543   -1.95493356975684    2.98877297063856
H          -1.19494300219310    0.13563342165625    2.05779375889030
O          -1.82224386764064    0.79837731955354    1.66218617914578
H          -2.49412041467886    0.95387726727588    2.32807250044189
O           0.48319589994827    2.08672026792760    0.81096850373273
H          -0.39838653225231    1.85261196974337    1.14014440396671
H           1.00494687499994    1.26561478384832    0.90055400868455
O           1.70206972632448   -1.40143524610453   -1.43407669251662
H           1.96718597856515   -0.86105127583851   -0.66356677557933
H           1.14776303735137   -2.07597994222301   -1.00583924418003
O           0.22893149962596    2.63861322108102   -1.73124440379555
H          -0.41324681714316    3.34863843007775   -1.76418327516977
H           0.42440434211189    2.49212110273185   -0.76444020029511
O          -1.94116016392183   -0.78874045523740   -0.54924603039661
H          -1.32578265138357   -1.44676520795155   -0.16221503513171
H          -2.08038538651315   -0.13801567709634    0.16267450244101
N          -0.26067201718790    0.09767121398893   -2.36946114674595
H          -0.06416525785571    1.11879872205671   -2.21034387026041
H          -0.52139282293672   -0.07579218744767   -3.33366060755243
H           0.60206239858863   -0.47188914875315   -2.10637221038113
H          -1.03070414751364   -0.21754552498094   -1.70108178274536
