    26
        -50.47155362  Gyration_radius:  2.4998659054 Dipole_moment: 5.042
 S           0.85827073592526    0.83908003430480    1.27373985354535
O           1.47165192199656   -0.34016892655339    0.64008819712618
O           1.54489113071777    2.06307261234570    0.96721259176525
O          -0.56143383769467    0.89640663422400    0.88593492683515
O           0.90763892912125    0.62062945695734    2.80959527560163
H           0.72704699716065   -0.34572548085247    2.92261674609902
H          -0.87103465441863    1.52240905251635   -0.70448623561221
O          -0.77136254213096    1.62774550603068   -1.67275235072184
H          -0.00439973670382    2.23064093539605   -1.77742121203481
O           0.46359682593919   -1.93028436335935    2.51769842849271
H          -0.44289494078505   -1.97101434260586    2.17122729905986
H           1.02362768792071   -1.73094617377013    1.74901540006596
O          -1.58126632209634   -2.36918383545185   -1.27727942430798
H          -1.71215830485386   -2.09421032411921   -0.34501464265660
H          -2.39703663594764   -2.16248578205865   -1.73690497907308
O           1.59564991550442    2.84597587444718   -1.54245012403194
H           1.77971194932896    3.78667330353900   -1.53096201524953
H           1.67404487265122    2.55134632657183   -0.60567671811066
O          -1.86539577835701   -1.29073449895851    1.17942615955881
H          -1.37895414866792   -0.42494570786663    1.05559376851167
H          -2.69404075968212   -1.06622702937793    1.60571889551858
N           0.45964295300497   -0.66877713695101   -1.74314652756159
H          -0.24776884175416   -1.43528046095012   -1.67408231810876
H          -0.06158170217320    0.26265872539216   -1.88006160802900
H           0.95186676451000   -0.57923487019810   -0.80453043682904
H           1.13168748146919   -0.83741952857548   -2.48309893978304
