    26
        -50.46904342  Gyration_radius:  2.57377477466 Dipole_moment: 2.006
 S           0.68622096442587   -1.11741402972223    1.37736473372061
O           1.93144242333654   -1.05733398541985    0.61954705433752
O           0.07664332590706    0.18397297187363    1.55690490607413
O          -0.23047150085383   -2.09858209030890    0.82659238535004
O           1.08181561716920   -1.61036238017971    2.83151394893750
H           1.55896586890630   -2.42377150149102    2.69365839891769
H           0.09701309982551   -2.10880616502535   -1.33013475245440
O           0.70159128407402   -1.45196133544168   -1.69198970852199
H           1.37634435776833   -1.35485761970268   -0.99139094484998
O           2.39417350955048    1.55080365101277    0.98310626081298
H           2.45030431397430    0.59775513616352    0.78154368260288
H           1.64055130372453    1.60679956125644    1.58152163063177
O          -2.74411433329631   -1.35886248045228    0.43178155602795
H          -3.18362644084518   -2.19989383604247    0.29672303763603
H          -1.81012554716717   -1.57593048376719    0.64335696692080
O           1.53368747703387    2.73380509107766   -1.24534085979181
H           2.21666356388361    2.65001447982986   -1.91214587060065
H           1.93513988691864    2.41366748813683   -0.40051675589419
O          -3.09164538373024    0.81458030416575   -1.10193402634140
H          -3.05104731852990   -0.01666226733803   -0.57987034378621
H          -3.59164766127596    1.43460178795286   -0.56872038651503
N          -0.40554053706834    0.89405373277904   -0.97713570974924
H          -1.41782788893773    1.03132634901386   -1.18793859474703
H          -0.30416394663231    0.71902737247666    0.04891845014646
H          -0.04723055790642    0.03464622963297   -1.45680052803591
H           0.19688410979298    1.70938402954761   -1.22861454090135
