    26
        -50.45945350  Gyration_radius:  2.49537087189 Dipole_moment: 6.639
 S          -0.08276133237773   -2.06423390862063    0.74542848559400
O           0.53113055603798   -2.01357595955995   -0.58520487368493
O           0.78800026246173   -2.53775436870723    1.77157242976073
O          -0.65169719156631   -0.73348806900281    1.06484458719982
O          -1.32429683795458   -3.01499354226015    0.62504573930874
H          -1.88153147556858   -2.55447756809916   -0.02834185816908
H           0.81293699574235   -0.19411352618739    1.44442886359323
O           1.70480178054987    0.19566752431158    1.60489253983199
H           2.18410435976896   -0.52388851682046    2.02369369151656
O          -1.46202035391916    1.16136924655185   -0.46398022203368
H          -1.04809277641812    1.94247406448577   -0.06506825453678
H          -1.22396158668368    0.43716186605571    0.17674829290287
O           0.37253050909132    2.64745075809586    1.05470734386057
H           0.07387380902620    3.14935055830474    1.81438368984920
H           0.78773804700028    1.84397140982405    1.40705411027087
O           2.44612500353936    1.51711645472950   -0.64868911864082
H           2.03446638357311    2.34467507479947   -0.37708967056608
H           2.40363506498573    0.94744691027667    0.14633541350669
O          -2.86038664587374   -1.39928405071583   -0.94571932535301
H          -2.54722133507388   -0.48811523270599   -0.87708782896689
H          -3.70330186850896   -1.43160426762991   -0.48763969083928
N           0.53065582281957    0.16619219991695   -1.91821640131969
H           0.55028632970734   -0.79316344621452   -1.40838508403945
H          -0.33159551168995    0.65070386749903   -1.56370709803849
H           1.37164661019965    0.70545114454722   -1.58689729635508
H           0.52493538112168    0.03966137709943   -2.92310844463527
