    26
        -50.47421851  Gyration_radius:  2.43481363461 Dipole_moment: 4.552
 S           0.67877584213799   -0.67961347540989   -1.14004350078062
O           1.50438899910392   -0.31941039949008    0.02055463940689
O           0.91317833402082    0.20145742967302   -2.25807380173556
O           1.09011248000386   -2.14444810666131   -1.52938827497945
O          -0.72641659468525   -0.76052806658019   -0.76286805619932
H          -1.00863814010016    0.89704955441527   -1.20629441299374
H           2.01369423003207   -2.04350884569460   -1.83406785846295
O          -1.14851687270956    1.86206526305789   -1.23348944506875
H          -0.65871051612946    2.14700891445647   -2.00898390439436
O           3.34881839208925   -0.88214746008358   -2.07743025304684
H           3.51063541632328   -0.59052491742798   -1.17488172952383
H           2.66517073088770   -0.28045330368975   -2.41912620645367
O           0.18216541782944   -1.81234453026609    1.72184730191758
H           0.82081484087241   -1.30659685519212    1.16878028885299
H          -0.34563583744837   -2.29991477159107    1.08325949825014
O           0.42975560488117    1.92815223693282    0.98156780911338
H          -0.13223399156881    2.15977925311112    0.21555748862671
H           0.99788238881180    1.19720714737039    0.66065028121111
O          -2.97779134199692    0.18883398620776    0.39898033427772
H          -2.34233882769681   -0.36387666705447   -0.09001353080326
H          -3.00205382049483    1.01783603809483   -0.09053852414369
N          -1.17816887684668    0.38307383717094    2.35094252025774
H          -0.51889145838870    1.11368566043500    1.92392289156046
H          -2.02705767035115    0.34089372594821    1.72767410057142
H          -0.67594881812913   -0.54465612983503    2.25686008324656
H          -1.41298990043199    0.59098048208994    3.31460226129271
