    26
        -50.45994936  Gyration_radius:  2.60073079147 Dipole_moment: 3.323
 S          -0.71243631206045   -2.08359189810364   -0.58956717221195
O          -1.24033000882465   -3.25479267974208    0.06210510189725
O          -0.34472549745464   -2.16549660233555   -1.97112345039805
O          -1.88951254438968   -0.97792276334639   -0.54145738703159
O           0.37440099050062   -1.46022280546985    0.20424351253515
H          -0.03544721855924   -0.24517705221398    1.19377675145101
H          -2.23364738033588   -1.05437402225409    0.36482358981008
O          -0.38664773906000    0.55536987351186    1.65777667400241
H          -1.02074303781289    0.20067932630467    2.28686799572661
O           1.53017093521547    2.43898703724645    0.95885477643607
H           0.90295362049671    3.04509479460616    0.55748656192490
H           0.99623060417160    1.74795903158623    1.38322238240570
O          -1.08509822356813    1.66555561708489   -0.73645100940171
H          -1.75919573892965    1.03411275326473   -1.01503241602340
H          -0.90720782989795    1.42245955618233    0.19582721629274
O           3.20178540793475    1.54386630321374   -0.94983758450130
H           3.93055978041742    1.07294090730623   -0.54304148341238
H           2.69661125296702    1.95773622125340   -0.21452850576629
O          -2.18341609229292   -1.78572719910167    1.99931206352264
H          -2.94665559304877   -2.20908698997977    2.39793802319585
H          -1.74588831728075   -2.48221086121287    1.45471643466548
N           0.99032572206199    0.22104349525431   -1.66159800760496
H           0.82261258896761   -0.29588412957744   -2.52318350812290
H           0.22988094048165    0.92422106390267   -1.48796928416194
H           0.88737189811214   -0.49765853820703   -0.88002199219601
H           1.92804779219048    0.68211956082912   -1.60313931301954
