    26
        -50.43436643  Gyration_radius:  2.58841631677 Dipole_moment: 5.614
 S          -1.90198454546814    0.61460624413295   -1.91554984322566
O          -0.62797882002009    0.16740952124767   -2.39882897203818
O          -3.02727041099574    0.48994624611505   -2.76398632850686
O          -2.16555130735991   -0.13301815762941   -0.54585598296578
O          -1.78967586010707    2.07059928273689   -1.40947623041631
H          -0.94262388589848    2.14964899925117   -0.88590999374916
H          -1.81342805307772   -1.06725155504466   -0.61085134605599
O           1.06731694820240   -1.68787978575105    0.92751932724368
H           1.71818439431428   -2.38360381814784    1.02887529235704
O          -1.14945338434624   -2.49583898968257   -0.34522886085250
H          -1.67835284585446   -3.02662307992854    0.25389574168366
H          -0.31015594869246   -2.27253029605527    0.12314940452174
O          -0.69592443025965    0.34808214977075    1.74467970703925
H          -1.45768621624761    0.23820882499810    1.15706879283023
H          -0.14481138232230   -0.43692526195598    1.60722629585928
O           2.17963958604668    0.70173665377531    2.34143256011696
H           1.39100526149585    0.97293816183923    2.81637439192637
H           1.97767566103822   -0.16400151319389    1.96925853069065
O           0.30126521613264    2.21180313045196    0.12241645440575
H           0.03596898301098    1.55880121340666    0.81667518945591
H           0.38146659446364    3.06163838091173    0.55961851151797
N           1.78276735754922   -0.14602428483068   -0.98262309877459
H           1.92426843917617    0.78022780751641   -0.59420803494166
H           2.58526222623151   -0.37720546139533   -1.55341125970597
H           1.39505618947185   -1.08783429806724    0.13233587556711
H           0.96502023351650   -0.08691012447920   -1.59459611398188
