    26
        -50.46018313  Gyration_radius:  2.46082268394 Dipole_moment: 4.612
 S           0.01173951486956   -1.78881802326072    0.90482448323173
O          -1.03141745242785   -1.98530043711278   -0.10812148799613
O           0.01740505045180   -2.72893797986150    1.97176918439290
O           1.37773070168410   -1.90511403223624    0.11248092841264
O          -0.02651563646495   -0.38581016810335    1.37417715314533
H           0.74775191027889    0.92766714537922    0.97937403064821
H           1.14493786973011   -1.50409303087831   -0.74215276705402
O           1.18574920485253    1.77531254757528    0.69350424086185
H           1.15215053695143    2.35842753029005    1.45278020870926
O           3.14763240347698    0.36232079386309   -0.56314912539164
H           2.61208695961309    1.02243508702699   -0.08458956547329
H           3.12724772077021   -0.43325923120737   -0.02021773121614
O           1.24069581753338   -0.44106274607369   -2.18011795756397
H           1.55275373174298   -0.88870732042756   -2.96766815525224
H           2.03994829483023   -0.05981088607111   -1.72752472923390
O          -0.43125851010144    1.64984284568702   -1.50697827652740
H           0.12807212592185    1.91779880853829   -0.75463457987883
H           0.07571404311226    0.94519312594604   -1.94368150742680
O          -2.33794824056662    0.43549555896892    2.25889151698759
H          -2.70883115078962   -0.23829758517897    2.83071986648034
H          -1.40970058393938    0.14991350974212    2.08010164040971
N          -2.35326138473919    0.17883761021116   -0.42466647964374
H          -1.67036072616482    0.85937096307576   -0.86654186254266
H          -3.19892483274904    0.09323839624836   -0.97700192153799
H          -1.83366924153181   -0.77115094168733   -0.34988508178725
H          -2.55972812634823    0.45450845953702    0.55830798524276
