    26
        -50.45755901  Gyration_radius:  2.49740437333 Dipole_moment: 8.542
 S           1.09321239254877   -1.90377411165806   -0.91349115521090
O           0.18439808993736   -1.79174906212889    0.26146482899983
O           1.23509792407881   -3.23873636222041   -1.37939276497737
O           0.37540682086913   -1.02886274649777   -2.03917344629143
O           2.32642275740140   -1.18112406116039   -0.63568594314135
H           2.37666838588869    0.30130671023557   -0.26270091820764
H          -0.56829367734143   -1.31030643675285   -1.96300649376311
O           2.35040786184236    1.24758366035170    0.09230102933743
H           3.24387356255837    1.58189895136445    0.00533128279843
O          -2.02428430479837   -1.52998034640089   -1.16777117500723
H          -1.45279722079409   -1.87088072260412   -0.45765990247640
H          -2.25619924289094   -0.62505055461235   -0.90099132486802
O          -1.67297456141084    1.08698922871603    2.25439441306358
H          -1.89830537110398    1.18713695120923    1.30133648380894
H          -2.31481176200306    0.47248616508979    2.61484933585877
O           0.15119239387840    1.62932382902882   -1.50299710541783
H           0.29288687691485    0.76150612884038   -1.92102759801778
H           0.91972715511856    1.74733559072764   -0.92070942054319
O          -2.15536642802300    1.16913275384465   -0.37235024660383
H          -2.78605477348627    1.77208506250783   -0.76875436644004
H          -1.27343241384367    1.38495334989787   -0.79001078286453
N           0.77982347747609    0.04211240407945    1.92161482970288
H           0.55408182056247   -0.77998147119744    1.22879077539101
H           1.41659187215966    0.68239600935583    1.40942183912795
H          -0.12718840604400    0.51562342222480    2.15215047091960
H           1.22991678053370   -0.32142434221708    2.75406737485412
