    26
        -50.46922590  Gyration_radius:  2.49293429267 Dipole_moment: 5.310
 S           0.30280133748031   -1.29891532016361    0.42785982318657
O           0.30886742386835   -2.37803740165932    1.37708174693394
O           1.37954850610580   -1.32294459058638   -0.55933205524217
O          -0.98512731548348   -1.42923078442296   -0.48233780143202
O           0.21004640043044    0.01468611164866    1.07320753696099
H          -0.83637598970248    1.04852168798090    0.30237615844176
H          -1.78451841110941   -1.21985217017188    0.06317507868748
O          -1.44217860346992    1.42424497333974   -0.37661203731511
H          -2.29296317781551    1.01267594313935   -0.19665805966495
O           2.68840350298735    0.83755796817571    0.37428977524621
H           2.62703266274749   -0.05597977429753   -0.00029117913077
H           1.86927925250118    0.89887670207059    0.88973921513153
O          -1.35829153729468   -1.18704376117638    3.03799253311693
H          -0.74188010007831   -1.77882053979682    2.55128831228037
H          -0.85763484769370   -0.37451801862462    3.15567474254886
O           2.40512031305277    2.20042611795245   -1.86880178508397
H           2.57225937593368    1.83660778907558   -0.96032963128031
H           3.24240214886295    2.15031294378280   -2.33213459789870
O          -2.98935448617749   -0.73580480634632    1.04620846165884
H          -3.69769392586996   -1.38044647772044    1.09817975585375
H          -2.46307625177257   -0.84156149199724    1.88801799746581
N           0.36083731485769    0.51609123373631   -2.12899905611613
H           1.11570102213708    1.25022873057480   -2.18748082082836
H           0.05239200525136    0.21161149104782   -3.04613552663841
H           0.76173342295786   -0.30162235269362   -1.57814004624723
H          -0.44733006247667    0.90293577720741   -1.56783856065264
