    26
        -50.46212985  Gyration_radius:  2.45793781533 Dipole_moment: 3.050
 S          -1.10840512826149   -0.69800789402345    1.91279530898684
O          -0.43373385905924   -1.90714187448279    1.45165847867168
O          -0.96116977134352   -0.39962150874803    3.29415249789857
O          -0.67298046721922    0.43805127544204    1.05072639363690
O          -2.63617461039044   -0.88732863884063    1.57939916708372
H          -2.62980867609633   -1.16897870664667    0.65938027919525
H           0.90470200676475    0.76052452497468    1.14494911317496
O           1.88853454054305    0.86906172022202    1.10042637763421
H           2.16130122086355    1.14512439689402    1.97646376853353
O          -1.35292011060148    2.38201048675173   -0.66187086500246
H          -1.51194708934406    3.24836785986295   -0.28558825133617
H          -1.19100267326061    1.77710192752263    0.08637792162871
O          -1.72829142425909   -0.62700369798731   -1.09112647586999
H          -1.24231677558750   -0.24165017343851   -0.33064287199194
H          -2.15781276655248    0.11988092871933   -1.51913608664253
O           0.70600320996502   -0.93922328213865   -2.29689717584135
H           0.92046268399491    0.02211867387885   -2.24797241443468
H          -0.24251257868940   -0.99739343551147   -2.07528003638969
O           1.13960543778407    1.60397764662939   -1.61102700798374
H           0.25552133297717    1.96880229904907   -1.43053000627132
H           1.57884614973858    1.54130875914326   -0.75405489484684
N           1.69230953103773   -1.61975661454207    0.00873608560112
H           2.35384235031819   -2.38633459013516    0.05098504754514
H           2.08985145179230   -0.74344521837707    0.38917530519521
H           1.35358406845847   -1.43128707515555   -1.00213367841688
H           0.82451195644743   -1.82915778905797    0.60103401024132
