    26
        -50.46705859  Gyration_radius:  2.42607259553 Dipole_moment: 6.503
 S          -0.36120575360378    1.59948167471219   -0.75152859806613
O          -1.40506419140734    2.13584746626925    0.11154165677416
O           0.90408026798763    1.43703603084749   -0.07332627069828
O          -0.81386806590378    0.38027247529016   -1.41097850511276
O          -0.12182834418181    2.66410184382421   -1.88850043287477
H          -0.99113457229009    2.77060224151346   -2.25940114667331
H          -1.60058934657726   -0.78592460007273   -0.56961312166072
O          -2.05003000475017   -1.45128815027382    0.00731426203195
H          -2.62153365170501   -1.95911185348846   -0.57029892770800
O           0.90982356142501   -0.15148170137363    2.08868252050132
H           0.92424584368314   -1.04473611207915    1.64480801847439
H           1.12280311757450    0.48303323578742    1.37868154821844
O           1.21059684228490   -1.43046917597315   -1.76530550938106
H           0.47297350395575   -0.79952514115455   -1.79132384816578
H           2.01101413666837   -0.87784874910083   -1.78921375242339
O           0.58384935573657   -2.32288873970458    0.66565986826252
H           0.95252890454202   -2.11561271011038   -0.22540217144222
H          -0.37353925784958   -2.30612945871096    0.53639579338806
O           3.06129465254462    0.56675099451396   -1.42063827294942
H           2.31475138927006    1.01174885484224   -0.97743536945816
H           3.74971460188820    0.47532742184922   -0.75947341895050
N          -1.60438632285046    0.34395093870059    1.99271013600914
H          -2.11934839477151    0.55398636186940    2.84036761974915
H          -0.54348764119128    0.11704182925361    2.18473082329586
H          -2.00982121740624   -0.45665110285666    1.48403590509554
H          -1.60183943318364    1.16248613576235    1.31751120369867
