    26
        -50.46573230  Gyration_radius:  2.49363367778 Dipole_moment: 3.968
 S           0.54010087992409   -2.10266719619269    0.45658823213804
O          -0.32880178657398   -1.84751080662800   -0.68842063002698
O          -0.12801974383222   -2.69893456972259    1.57612743740027
O           1.63116888012044   -3.15428925513020   -0.05212719816465
O           1.31838149075642   -0.91483665503781    0.79587683082821
H          -0.03721171410361   -0.51774978031106    1.85365057782253
H           1.25116647806916   -4.00225022825287    0.15679490556149
O          -0.77347172294733   -0.08324954021554    2.31995203663922
H          -1.13723828151720   -0.77664521262486    2.87657996917363
O           1.22596340330563    1.72112204325045    1.31071195271936
H           1.50517555214017    0.79309799789829    1.19713640546756
H           0.46597221283853    1.66074405521653    1.90078938199471
O          -2.04930112852061    1.94576326900352   -1.39974149707912
H          -2.62009798840023    2.59500080454833   -0.98697358297236
H          -2.22438388889548    1.08572563806659   -0.92245432501382
O           1.49638024466110   -0.46746044687473   -1.90399329929018
H           0.72661315283828   -1.02906818089683   -1.65035630610117
H           2.13121687464896   -0.65556707814306   -1.20368846344074
O          -2.31271433764078   -0.20700631827972    0.04252697076497
H          -1.94316485805560   -0.03786930141344    0.92725927405644
H          -1.73237753755919   -0.89632512760716   -0.33300504365406
N           0.60135091413760    1.93865258521610   -1.26529570195640
H           1.05506352416780    2.68661044020739   -1.77834001497591
H          -0.44705866578128    1.99163097357197   -1.37777548254663
H           0.94390825117515    0.99034340302926   -1.61559229174578
H           0.84137981502179    1.98273849732274   -0.23623012758828
