    26
        -50.46949257  Gyration_radius:  2.46542201769 Dipole_moment: 2.140
 S           0.00318628499482    0.31259299231349    1.73825566645020
O          -0.02962862303623   -0.96159386692126    1.05105965037771
O          -1.31349389663695    0.93198016003881    1.82976233520808
O           0.44185404314729   -0.03017422942719    3.22417025631440
O           0.99933949360686    1.23048045133909    1.21462340466288
H           0.10271838108904    2.24159803273377   -0.09688237585370
H           0.44948078370430    0.80921553776425    3.67429018385322
O          -0.82342647172998    2.39533221631285   -0.34389812486228
H          -1.29042011214739    2.14185649162699    0.47174961365994
O           2.72839907925489   -0.72576133563187    0.82210114482524
H           2.03146261272083   -1.35642118171821    1.03532364675083
H           2.30475419604513    0.13775931079727    0.98369714830487
O           0.18600039267737   -1.40372068794631   -1.60463371994552
H           1.09900421850130   -1.11868380876086   -1.83457863631267
H           0.15238009343265   -1.38186709365741   -0.62904521547039
O           2.73241713759931   -0.64346430680968   -1.85499050090505
H           2.85218216431158   -0.61505098723609   -0.87649985179397
H           3.39589056101186   -1.24953608272321   -2.18752966392101
O          -2.79574896062591   -0.73595941497063    0.42235627024664
H          -2.39195771879052   -0.08795867897019    1.04073900388637
H          -2.26602583344781   -1.53017259302398    0.54335312153224
N          -1.72885765733927    0.34032992918827   -1.75958989890321
H          -0.91232674953216   -0.34872319365155   -1.87662080724498
H          -2.33619909451758   -0.08586753890525   -1.00591845779415
H          -1.35331615104713    1.24336846272855   -1.35832442486499
H          -2.23766820324737    0.49044142548102   -2.62296977820025
