    26
        -50.44344045  Gyration_radius:  2.44008410103 Dipole_moment: 4.605
 S           2.07111619989921    0.56193050206481    0.30109395875021
O           1.41489380166878   -0.02366881496465    1.45488015040504
O           3.30778787810511    1.20713643058886    0.53538036820532
O           2.21247021032212   -0.54364449729143   -0.77219644464417
O           1.05048392519170    1.51875268966415   -0.36819567973358
H           0.51673756425423    1.91043227479631    0.40972088855684
H           1.99319082965532   -1.44207213525057   -0.36459524215555
O          -0.78463657218413   -1.30119811793492    0.60111671330534
H          -0.03303058524081   -0.78750486282528    0.95394077954816
O          -2.41122680084500    0.75712728284544    0.89636578905030
H          -3.28037637596446    0.55704554643339    1.24469302087994
H          -1.92377479162907   -0.10411833718152    0.81385604486190
O          -1.57584316441662    1.64321365170703   -1.68640922707595
H          -2.00320150297337    1.48411054907341   -0.83265319886897
H          -0.68464010890397    1.94639363884019   -1.48762536923638
O           1.54616352486459   -2.71528887279097    0.44924310578136
H           1.91288823380583   -2.57415234919593    1.32652592708752
H           0.58390801963249   -2.55708904140355    0.52972337661710
O          -0.25384656007626    2.14001611425314    1.70466557216621
H           0.21877887500215    1.47381364444713    2.22024699726745
H          -1.14185645441303    1.76765651859242    1.51265681543777
N          -0.53894610565060   -1.01004183145598   -2.00629561657792
H           0.44602125473940   -0.86699565292860   -2.19587805708108
H          -0.73269579061352   -1.23103931202041   -0.40291956498700
H          -1.01603056561559   -0.12196808522252   -2.17097839892660
H          -0.89433491870775   -1.68884695302047   -2.66636270870262
