    26
        -50.44654227  Gyration_radius:  2.43535455852 Dipole_moment: 1.060
 S           0.68323842364227   -1.47887510834365    0.94128420852469
O           1.06062509980745   -1.49274056091424   -0.45154459063251
O           1.76322663919200   -1.31843440893509    1.85700840047211
O          -0.33583568949535   -0.32337527955732    1.16942789999308
O          -0.17164348330726   -2.70044492913511    1.26297805790047
H          -1.00594438155144   -2.56470776938896    0.68560047047364
H           0.21393848500843    0.50375804610383    1.34323954840549
O           1.30439233656377    1.59473221561488    1.55616804104882
H           1.87134520731968    1.09621177593269    2.15294081591313
O          -0.00476167958585   -0.14275861507576   -2.50076948600938
H           0.38895984394245   -0.67207824187321   -1.77804804310259
H          -0.23307507269770   -0.76886558703998   -3.19009068100695
O          -1.42365764492188    2.34489490797414    0.83521032999840
H          -1.80039500203246    2.06937434468827    1.67290462567031
H          -0.47617407917377    2.44110587781000    0.98179338399746
O          -2.21903286561052   -2.16288808871290   -0.12430162048020
H          -3.00758489287357   -2.24493339704000    0.41620551271624
H          -2.19733128236389   -1.20558536446506   -0.42792949695353
O          -2.21088732749681    0.31247297014685   -0.96649986177512
H          -1.98385388102209    1.01436659242299   -0.33435049480872
H          -1.47649102294382    0.29665694841853   -1.60893233981287
N           2.31876142214984    1.09566736875991   -0.79879117811288
H           1.70070386291852    1.38391654400132   -1.54933458245827
H           2.21843894933512    0.08595090997133   -0.71456042625444
H           3.26949917272850    1.29905113657294   -1.07989119141139
H           1.75353887246158    1.53752771203148    0.65028268771561
