    26
        -50.47513795  Gyration_radius:  2.42343432309 Dipole_moment: 3.753
 S           0.79256998958155   -0.70682508900935    1.56347431391514
O           0.16287793270081    0.03759308864213    2.63622385689022
O          -0.14374225221363   -1.43598597037400    0.73468503838730
O           1.67829723240696    0.14019851397253    0.76950054840894
O           1.71342025334420   -1.78542355000648    2.25684380805035
H           2.10838603918166   -1.25423266294663    2.93841666562987
H           0.85560924232904    1.36683060608433   -0.04120192506343
O           0.21293815075569    1.97218334273882   -0.46895680630023
H          -0.42873450672006    2.17142447919024    0.23284100091393
O           0.32945789825173   -1.82936403707692   -1.88492310149859
H           1.26419921287705   -1.54627058191959   -1.93791021919683
H           0.16400619127837   -1.93579337213068   -0.92831053177638
O          -1.50282108909098    1.76854122647818    1.67207669890643
H          -0.87293797431629    1.12278117869407    2.08746776436934
H          -1.81946421482801    2.32474922343366    2.38555719288936
O           2.73632774164500   -0.68039591233716   -1.51769016069054
H           3.06612500146493    0.12101031998589   -1.92742615327195
H           2.43440446277994   -0.42025900805825   -0.62175615404560
O          -2.54962612237581   -0.33933358343312    0.24388405711598
H          -2.44206151351321    0.46149461219466    0.78407534152981
H          -1.81521756202034   -0.92016427546670    0.52235081778135
N          -1.20194385957876    0.28694663457853   -1.93618641146345
H          -1.63681020379319    0.58629078470727   -2.80052722656605
H          -0.58714214520981   -0.58193533508740   -2.06929771993484
H          -0.60348701791656    1.04532572753703   -1.50024696000095
H          -1.91463087703331    0.03061363962689   -1.19296373499807
