    26
        -50.45612323  Gyration_radius:  2.4560410269 Dipole_moment: 8.957
 S           1.46541933333743    1.20896167235765   -0.92015161294745
O           1.55721472502824    0.69289262493072    0.46103006216161
O           2.75073566100335    1.28743201151632   -1.54305083281853
O           0.60591245220488    0.10679927225104   -1.69804348442234
O           0.63553934125671    2.39919040634507   -0.96776762318371
H          -0.78749844462320    2.37610984394991   -0.37635337708406
H           1.25063396163515   -0.64801145890775   -1.67642427920473
O          -1.69466965649369    2.32913354905759    0.06129618415976
H          -2.05713752414745    3.21298695928033   -0.01374027734668
O          -2.05799263537375   -0.10133519146424   -1.21589744488253
H          -2.18382294419331    0.78875010598713   -0.84855047589524
H          -1.16640907331475   -0.07652519249663   -1.60563595070366
O          -1.66366901509576   -1.68417850122013    0.80823683046492
H          -2.42360977719784   -2.25052941572102    0.94654525833133
H          -1.85056267386060   -1.15579983441538   -0.02198254341259
O           1.06289146937578   -2.45191460155274    0.95164638769647
H           1.17233668062129   -3.30847918101532    0.53402812119160
H           0.13118058181736   -2.20964899050329    0.84469129754024
O           2.59406345587185   -1.41976815626248   -1.16067466336479
H           3.06100744801086   -0.57019656168471   -1.18960338931329
H           2.32544781091387   -1.56649544972826   -0.23715634967247
N          -0.56942288971521    0.60748008873713    1.80886488996662
H          -0.40557294135185    0.78371265571811    2.79289651981102
H          -1.14981410619153    1.34417533637673    1.36648392462169
H           0.39862361356493    0.62524253217981    1.24654731139321
H          -1.00082483303468   -0.31998451368405    1.65276550693293
