    26
        -50.44576778  Gyration_radius:  2.4925509587 Dipole_moment: 4.981
 S          -2.02802430276398    1.17950540847658   -0.67589694857388
O          -1.07968742867902    2.07898749176390   -1.29027016731893
O          -3.39260839802535    1.34636498418098   -1.00387780536540
O          -1.56029655717093   -0.27168750953887   -0.97473238648903
O          -1.86296391769232    1.28618649303823    0.86776703799751
H          -1.20767101618111    0.61458823115495    1.22711669771391
H          -0.61716151941746   -0.18920946502594   -1.35750581287959
O          -0.25021056749839   -0.45225078564171    1.86972612816763
H          -0.52535028398592   -0.63008257144128    2.77025926687356
O           0.76693184491934    0.20248204350246   -1.85330390488335
H           1.27739286093489    0.34329961357999   -1.00673359842402
H           0.49603909599015    1.08420619940248   -2.13933486284000
O           0.65622996368900    2.94648911453706    0.54524223309371
H           0.11370488272248    3.21260072315114    1.28935057440487
H           0.03224486314354    2.76092003799892   -0.18415616321420
O           1.89790843832981    0.56271511103495    0.49282503961766
H           1.27815269342102    0.14071096702754    1.10988683340435
H           1.69826772847979    1.51803492216838    0.56536239047571
O           2.09826275506251   -2.13123575752294   -0.80402217227384
H           2.48233401465816   -1.44195331584962   -0.25165695231329
H           1.82075687113864   -1.68866052461854   -1.61257014230112
N          -0.43623061857937   -2.60007274372065    0.46287931625136
H          -0.35531104942418   -1.33575412050253    1.33847283258918
H          -1.13096205224033   -2.37898529231828   -0.24070526516467
H           0.47446732738299   -2.64944067800960   -0.00028261199388
H          -0.64621562821247   -3.50775854682554    0.85616048346356
