    26
        -50.45507575  Gyration_radius:  2.42464079384 Dipole_moment: 10.707
 S          -0.34699173569919   -0.80657114982691   -2.11062843729562
O           1.10523724702791   -0.94459603662671   -1.97654129161054
O          -0.83183396595170   -0.78005219081836   -3.44603590558955
O          -0.98321714274854   -2.05262653216029   -1.37109917509646
O          -0.78992376480421    0.35099727007006   -1.29278416255996
H           0.42544171662886    1.38395031832227   -1.58510635416082
H          -0.79749982937484   -1.90017127447561   -0.43085214892945
O           1.35740830800567    1.71429377758785   -1.62410393829104
H           1.79646447351285    0.98488382218008   -2.08419248581020
O           1.95877448576043   -1.46787738059659    0.38587136752822
H           1.70231027992444   -1.36624524234358   -0.57675026354871
H           1.21532466477847   -1.91780709967832    0.80387889874032
O          -0.67505978737455   -1.68448026393542    1.33101276530677
H          -0.69484296218250   -0.75062110291339    1.61285219883004
H          -1.53715271894771   -2.04992747724622    1.53975627171385
O          -2.68981918873050    0.77107270160958    0.36034152606483
H          -3.20199616629786    1.49018004972460   -0.01226777550629
H          -2.03322865361399    0.52531596073023   -0.34938632871976
O          -0.78944569966078    0.98309090760767    2.12122934416528
H          -1.53541694471223    1.02421916421129    1.45958502675996
H          -1.15757739604359    1.24674619310739    2.96547965333632
N           1.71125463783240    1.07076047367507    0.88237596232718
H           1.62318387834481    1.44855242747524   -0.12404478122995
H           2.46450113023436    1.52556206229850    1.38540923821961
H           0.81118272653501    1.19144738994915    1.36916653957555
H           1.89292238755776    0.00990323207441    0.76683428578182
