    26
        -50.46605853  Gyration_radius:  2.44191924009 Dipole_moment: 7.365
 S           0.90710591741918   -1.17632880390894    0.82263601207441
O          -0.48431573104366   -1.23972225076085    1.27017956474495
O           1.68109655404909   -2.32844395428044    1.18765211561601
O           0.81385493348754   -1.12425706952553   -0.77391399540956
O           1.50606239020199    0.10559727548574    1.17099080611923
H           0.30507208519553    1.07366578410670    1.66579581229237
H           0.48497855367955   -2.02373012114263   -0.97114486551006
O          -0.56280645296364    1.50540316226131    1.86524136831844
H          -1.07450734814926    0.78188361618138    2.24062300476547
O           2.61952794171817    2.01691486120340   -0.29846134335770
H           2.34172802828381    1.25156412931761    0.24618863666372
H           2.76487976754426    2.73829558444289    0.31542783972158
O           0.01668859133008   -3.59756434774082   -0.37538364600790
H          -0.80345744834323   -3.56484125133161    0.12256832003757
H           0.72588546626406   -3.42866777724229    0.27859409422413
O           0.72566430843683    1.33582035232423   -2.04939184055570
H           0.82324783982911    0.38677249847891   -1.87487338022126
H           1.47760425969235    1.74175724112029   -1.56818739239699
O          -2.38881394351926   -0.77445150598103   -0.41320736369454
H          -1.64207035982885   -1.00468569245389    0.20227382652367
H          -3.18849550996451   -1.09665730936637    0.00461960073005
N          -1.42941908824059    1.70971085534649   -0.62213596190115
H          -0.56302995141273    1.63568582828510   -1.25753525688509
H          -1.94940780766506    0.80431939913744   -0.69432135535296
H          -1.09658177918767    1.77288466863941    0.38634998988529
H          -2.01049122679673    2.49907483741198   -0.88058458042076
