    26
        -50.47074751  Gyration_radius:  2.49944427024 Dipole_moment: 1.706
 S          -1.72260698347152    0.17289480329668    0.95374929497397
O          -0.93386915749440    1.39327277150527    0.95801030338881
O          -2.28549191131378   -0.14415166204034   -0.33741780055635
O          -0.97799838977164   -0.94261798014005    1.53556417031993
O          -2.95112631806508    0.43165749473204    1.91760409364942
H          -2.53205728266702    0.64665249819859    2.74453723256210
H          -0.59117803706820   -1.86350511224262    0.19015576347462
O          -0.42511579423656   -2.11641812136236   -0.74367593377765
H          -1.20436963729417   -1.77926974905187   -1.20023893585555
O           3.05488790463970   -0.74021386018915    1.06029580837633
H           2.41758239822154   -0.25032066166821    1.64248202373698
H           3.16455908080744   -1.60180971193994    1.46581430270664
O           0.49913442675155    1.75674685994406   -1.23950573500843
H           0.01059900072403    1.74988247812285   -0.38836923726242
H          -0.19851679813877    1.62931810965319   -1.91487757143538
O           1.11339515595975    0.37077094668257    2.45335732845594
H           0.81051268782354    1.20673810763038    2.08005312129383
H           0.38490889147623   -0.24632096356758    2.23380893616172
O          -1.65567010138743    0.99482034900998   -2.64176281639805
H          -2.36518452101711    1.58723897161164   -2.89453301959777
H          -1.95587451981982    0.55145424574581   -1.81868782728356
N           1.68437014922726   -0.57017353217096   -1.22694927927127
H           2.30589663156591   -0.65135524804807   -0.38113208170444
H           2.20453111548964   -0.76380709871899   -2.07543500013217
H           0.87758061157931   -1.24583666481692   -1.11547827381062
H           1.27110139743565    0.42435272972613   -1.25736888692112
