    26
        -50.47124172  Gyration_radius:  2.45360708527 Dipole_moment: 7.129
 S           1.17291788157716   -0.07691672027759   -1.11995522626913
O           2.19338382488697    0.59024438655264   -0.33694686322802
O           0.71318555705139   -1.31767846844864   -0.51364624625205
O           0.04548536662732    0.81963229664052   -1.39176520699414
O           1.78476204561276   -0.47938596138003   -2.50171728896750
H           2.07385877667986    0.38352914335595   -2.85279776271249
H          -0.86762251068140    1.28132468740610   -0.20838821071354
O          -1.43946738066270    1.58120521642760    0.55575469345288
H          -2.01485752260896    2.25792272778459    0.19536960213407
O           0.39777969970120   -1.41598307552568    2.14502351827979
H           0.69773781325037   -1.57717437726949    1.22847171029302
H           0.72955589800939   -0.50545851299334    2.33633648602092
O          -1.73052009757332   -2.14327189430089   -0.90944088462028
H          -0.80538641204058   -1.79344623560998   -0.90722345251790
H          -1.64721611960949   -3.08760400564561   -1.05352764902081
O           1.01762073431412    1.14803646236250    2.00059658577090
H           0.20714531265017    1.56123199109944    1.67959539591624
H           1.58044875284900    1.01849708332205    1.21089327411352
O           2.10782926919633    2.14628347784143   -2.55241011467329
H           2.55773384495096    2.00785385640170   -1.70744266522930
H           1.16601626203794    2.09670656222101   -2.33572006985516
N          -2.02585134012473   -0.90173349529524    1.42604814317615
H          -2.10677017082286   -1.45542299522164    0.53696161321651
H          -1.05579830438555   -1.16969621042838    1.85373942640739
H          -1.95643468025918    0.10569096325617    1.16025356665849
H          -2.79553649065066   -1.07438691235104    2.06193763559355
