    26
        -50.46139902  Gyration_radius:  2.43846111446 Dipole_moment: 5.227
 S           0.98616492534584   -1.07740404714706   -0.61157525931229
O           1.72503209974977   -0.05797139742428    0.13246055541673
O           1.68976675960645   -1.58023222489064   -1.76211271808657
O           0.74400996664301   -2.25776371894822    0.39243639665356
O          -0.34841542128105   -0.57580383016660   -0.98314589495986
H          -1.52330639774960   -1.26317124736827   -0.06171531319521
H           0.77884894962043   -1.83801794264957    1.28495770733212
O          -1.62961744180224    0.49008756616580    2.21202883028638
H          -2.39838376357676    0.72382670491003    2.73451694466668
O          -1.20140644218282    1.82935051252010   -0.23868795173623
H          -1.05233201907962    0.93242031040759   -0.60679251503428
H          -1.29471354944479    1.66862998006609    0.71201784208254
O          -2.08850170493134   -1.61454109831626    0.66617193860797
H          -1.68821115722729   -2.45695873058605    0.89339616419519
H          -1.90177607230432   -0.27343784999031    1.64237894023613
O           1.03496021157110    0.48238133275746   -3.26898158645520
H           0.09925690687125    0.28885694029898   -3.37244660581132
H           1.39978564569046   -0.32216739503236   -2.83135048106170
O           0.50525014901647   -1.14807150460293    2.78068160255995
H           0.08824740299575   -1.73106624539741    3.41895970873168
H          -0.10787025336912   -0.40506540278217    2.63135254218364
N           1.25305117743303    2.08730023851540   -1.16105115732203
H           1.59421113742321    1.27517140387246   -0.53898730872827
H           1.19486289735974    1.64628895786979   -2.11739028380676
H           0.27834235122510    2.28130547556444   -0.81113862633811
H           1.86274365236776    2.89605322236800   -1.13598347109501
