    26
        -50.45449940  Gyration_radius:  2.43263014968 Dipole_moment: 5.470
 S           1.05545424750340   -1.70018008151587    0.31856219573096
O           0.48676144711927   -1.19533031730357   -0.91324309465063
O           2.34791533458500   -2.27753660980345    0.19275932982110
O           1.05878771839519   -0.55539238495057    1.35771845249184
O           0.06639807134205   -2.68889362080132    0.95252378538254
H          -0.83053748772684   -2.23073518031600    0.92364228346920
H           1.49109568678162    0.32333124002183    0.94866027493237
O          -0.58722523289846    2.37076304234515   -0.23167381179364
H          -0.87773058603828    3.22974098517278   -0.53969941711284
O           1.93805893360814    1.49831872146022    0.27234824124263
H           1.09716669045571    1.92185428091389    0.00220441572854
H           2.35030967324983    1.10675219411070   -0.53404294158919
O          -1.24764894225499    0.85654033281874    1.97570372895861
H          -1.09207282279145    1.51954115995102    1.27878321605200
H          -0.37616936492164    0.48316818433255    2.16263362798050
O           2.79445286696116   -0.09732165213268   -1.66641390277960
H           1.92101431586867   -0.52662407656376   -1.67061840049273
H           3.38047611825594   -0.75047053224424   -1.27204315911600
O          -2.16401135328952   -1.39484788737256    0.99007801210230
H          -1.89026658165982   -0.50100638175509    1.34118986443748
H          -2.71584564101612   -1.78930502555854    1.66916583503593
N          -1.73024826745044    0.43503734830376   -1.58923384429226
H          -0.96711581345349   -0.23120598952951   -1.46466858095505
H          -1.94249829384290    0.47614357236087   -2.57802696483302
H          -2.53250723252047    0.03999807695091   -1.11334370236247
H          -1.03401348427864    1.67766059111076   -0.81296543339984
