    26
        -50.45521429  Gyration_radius:  2.5016231353 Dipole_moment: 3.074
 S          -1.05351488632585   -1.94067787553717    0.29638654364720
O          -1.16556975840197   -1.51908575609264    1.68391403804070
O          -1.75791915410041   -3.12637154249480   -0.05813661659002
O          -1.66710667614573   -0.74081243473395   -0.58839979647192
O           0.35949488775651   -1.94428181822242   -0.14132275721082
H           0.97141307924867   -0.89482097131690    0.92910794050148
H          -2.19130402210040   -0.18735941450664    0.01319054614916
O           1.26071407507800   -0.19889678664576    1.56692479622003
H           0.91297340264828   -0.49940428135967    2.41034792217416
O           3.07269282093321    1.16079349689835   -0.00825982527927
H           3.37697009696157    1.90477789164433    0.51455752848145
H           2.56512414202032    0.59358018039798    0.59695090027031
O          -0.31817878935511    1.88024089830492    0.71143729017375
H          -1.22409153753290    1.67586386766945    0.96822207065555
H           0.23795618199061    1.18677785641364    1.11525372013515
O           0.98517418227434    1.71796393033355   -1.60462558109274
H           0.37337970125513    1.90781330634448   -0.85694457660810
H           1.85533313806208    1.59286861858099   -1.16578629547729
O          -2.68797123530806    0.53213415444326    1.54461046278150
H          -3.55549826456822    0.38461796173620    1.92427282747214
H          -2.12203615245404   -0.23344006901290    1.82327251270584
N           0.36113586373429   -0.66152366625242   -2.36806445235872
H          -0.61746415329179   -0.68295215342854   -2.64458485864335
H           0.96339858617837   -1.02440250792663   -3.09969229713728
H           0.63190185300206    0.37118198054017   -2.09007969663965
H           0.43299264848129   -1.25458489577140   -1.47255232592892
