    26
        -50.46576498  Gyration_radius:  2.45488293524 Dipole_moment: 4.283
 S          -1.65990508529012    0.36839762711006   -0.30925042792004
O          -1.26179786064718    1.05636684667726    0.91119785995211
O          -2.93695711750936    0.77415472184746   -0.82151936510008
O          -0.54695731971108    0.79278328840168   -1.39715307888045
O          -1.46237376227538   -1.07003976188694   -0.19832783595659
H          -0.63146912960641   -1.29228711674767    1.22472894035565
H          -0.73659909877644    1.75212707554826   -1.47749216351569
O          -0.09087570326336   -1.34969897864532    2.04224198560285
H          -0.44329745546833   -0.65376825092806    2.60180073435935
O           2.28848265373654   -0.52716799995301    1.17164959321670
H           1.51862614108419   -0.94891761876393    1.62121257849567
H           2.08455662846809    0.43302325278357    1.19887697759647
O           1.20291342912878    1.90310386363703    1.04500756783139
H           1.21945555035149    2.55351420364032    1.74823059853250
H           0.26789285212144    1.58835688341156    0.98271286483132
O          -1.72973518176175    3.09042814793536   -1.03181329665177
H          -1.56855398372137    3.26917492465707   -0.10135837619314
H          -2.45508099698707    2.43416218360459   -1.04038129073267
O          -0.02631146867622   -3.12545042687783   -1.00769019441386
H           0.08723005905550   -3.61594098784233   -0.18983651597531
H          -0.74387050083047   -2.48283178289378   -0.82560732856279
N           1.54349377763019   -0.99079185365900   -1.25480331221892
H           0.81477339969988   -0.26935485508152   -1.40075255993106
H           2.24646451438445   -0.94390601963753   -1.98423896768134
H           1.96882430975157   -0.82077429509330   -0.26155615464587
H           1.05107135911474   -1.92466308124493   -1.24587883239248
