    26
        -50.46796992  Gyration_radius:  2.46655056092 Dipole_moment: 6.811
 S           1.91585117957449   -0.65192726267097    0.53109492652627
O           1.45060272130522   -0.72745433208925   -0.85537298174065
O           2.74982081195613    0.47779302836431    0.80442977477491
O           0.77752188484227   -0.76434292916728    1.45244144610538
O           2.77717890651475   -1.95830336578179    0.76593808702915
H           2.20447921682846   -2.68441321931278    0.52368350497918
H          -0.13641024073860    0.48473301283575    1.72523501814510
O          -0.77142618856173    1.24613462935428    1.83798224942381
H          -1.08010214268856    1.19571359053386    2.74380579412063
O           1.24551625159328    2.65897235631351    0.38524901211710
H           0.55692322134364    2.46873689486990    1.03485246066297
H           1.94753153439552    2.00169197184262    0.55659755804150
O          -0.13285262031173   -2.64915648911251   -0.14407786428850
H          -0.08691700097229   -2.23093888814581    0.73138513209462
H           0.43107158016589   -2.04964526683399   -0.67906995786383
O           0.34577684613443    1.47675756448074   -1.79904711588134
H           0.83862104169777    0.64478635925942   -1.62989294561252
H           0.73282712686130    2.11021915606147   -1.14657172924799
O          -2.40841258741282   -1.65492071889167   -1.07032175032028
H          -1.62441962409613   -2.12556251803792   -0.68673772039663
H          -2.47234541635794   -1.95401180254260   -1.97876994514997
N          -1.88007222904715    0.94044010854385   -0.61970064732918
H          -0.97824747213622    1.18402846968320   -1.20018478327813
H          -2.13898220475667   -0.06239202549381   -0.79547324464318
H          -1.61786588076600    1.06549965025593    0.37972591435584
H          -2.64566871534698    1.55756200567282   -0.86720022261748
