    26
        -50.45768364  Gyration_radius:  2.50041925495 Dipole_moment: 9.977
 S           0.02290244704821   -1.88180643270122    1.07223524974060
O           1.34550733219631   -1.34488871064834    0.76256765508814
O          -0.42024432753540   -1.63349306503667    2.40779553456586
O          -0.96030461620365   -1.35215026354619    0.09315629815994
O           0.07006880799764   -3.42633322338263    0.81334489065972
H           0.44126494394868   -3.49007856586145   -0.08250364356918
H          -1.41434883246066   -0.09350850099596    0.98109474293089
O          -1.58966101348467    0.77204797920169    1.42976643076044
H          -1.84318673411201    0.52119813299132    2.32089818105011
O           1.49945526414889    2.77806277550846   -0.24674523157840
H           1.54521042126706    2.10586889830162    0.49678541015022
H           1.72728619298413    3.62129280526099    0.14718729393626
O           1.22375014641977    1.10526893679509    1.70833883799039
H           0.27339711627237    1.07665423782459    1.88929263917968
H           1.44148322903435    0.19028516746582    1.42740372047840
O           1.26562485385787   -2.66377566576560   -1.50377781588294
H           1.56874787531446   -2.10783425322181   -0.75986991694172
H           0.87268636762022   -2.05069178898281   -2.13252958778291
O          -0.62749414454566   -0.35430919976945   -2.20919871199978
H          -0.68688882015233   -0.81906526513819   -1.31817349561389
H          -1.36754680239011   -0.68951164723811   -2.71893831190896
N          -0.89542248252438    1.96490879917457   -0.92555304559872
H          -0.77198232938308    1.09847346771702   -1.52721307179691
H          -1.50870627768118    2.63780457776803   -1.37293812436637
H          -1.28318111143022    1.65649543331579   -0.01549292217776
H           0.07158248380420    2.37908540095828   -0.73693299548768
