    26
        -50.45526364  Gyration_radius:  2.64585418267 Dipole_moment: 7.575
 S           1.12431333499188   -2.29234859007576   -0.14197185000607
O           1.78265720178815   -1.56307175516822   -1.22882458728045
O           0.92551050273417   -3.67883209057184   -0.37857630967791
O           1.98991312297678   -2.11719584773112    1.14498420586490
O          -0.16131313874279   -1.57564957415011    0.15915686864663
H          -0.38183272913578   -0.64281844878206    1.40475052353603
H           2.15946482875125   -1.14702703048438    1.25318304652406
O          -0.46590396802633    0.01115440252103    2.15533179131689
H          -0.59983298527372   -0.51661110430537    2.94419940294701
O           2.13979647543301    0.49235734777800    1.41930648459723
H           2.07621756930295    0.85151081201132    0.51753507455759
H           1.25234200504286    0.56279691306538    1.80817788422007
O          -2.29556199935456    1.82576487008188    1.37050016270368
H          -1.91132532943694    2.67003602177586    1.61098645143140
H          -1.66770447940690    1.13853251830666    1.68137817753999
O           1.86294659231548    0.95914175217871   -1.27987434213363
H           1.91923636365302   -0.05228569087073   -1.25976832380628
H           2.62178688988374    1.25266917720628   -1.78548610030918
O          -2.87190838137574    1.35323473317184   -1.17883938091780
H          -2.69157987235279    1.59530857285222   -0.23897297480451
H          -3.69870936844954    0.86828243721509   -1.16831058753058
N          -0.63613168801059    0.01323395920899   -1.78578221451999
H          -0.64864651483443   -0.48819075575268   -2.66770481040864
H           0.19128208933436    0.63532490409212   -1.74923599264730
H          -1.52703004128167    0.54879581979129   -1.62715809967982
H          -0.48798647030256   -0.70411332353242   -0.97898449011902
