    26
        -50.45413305  Gyration_radius:  2.44523128383 Dipole_moment: 6.122
 S          -1.12150844167406   -2.05326618561641   -0.14780100206193
O          -0.14586566026955   -3.11346155066740   -0.10876803949548
O          -2.49576791002912   -2.43536696996181   -0.01830344226697
O          -0.79758877658039   -1.14878610911111    1.17399875236858
O          -0.89017572863664   -1.08747007952883   -1.23032249830496
H          -0.07197708369794    0.23963514505961   -1.54251620045904
H          -0.70211667578484   -1.78181812009339    1.87933984342390
O           0.35002539639807    1.12143192502398   -1.72942276683818
H           0.05584413822704    1.36537435845711   -2.60836680965568
O           2.77621178264951    1.58085205480415   -0.36876457143363
H           2.01083390490542    1.47564478540378   -0.95500582445319
H           3.30793953354899    0.78864848025016   -0.48086475027464
O          -2.81786136029727    0.29821767126819   -0.09234827341383
H          -2.21883041598742   -0.20747780082688   -0.67870612390660
H          -3.31285951339503   -0.40291813580698    0.34373533016365
O           1.41487538017195    0.58966444733037    1.74799614053940
H           2.05231489329547    1.13159118732508    1.24254833275318
H           1.44693145019180   -0.27366778168890    1.28913712294428
O           1.79964455006419   -1.35770487333138   -0.14514860376258
H           1.18942467487212   -2.12162669217778   -0.07272850874645
H           1.62685484099260   -1.01295660860681   -1.02429961771257
N          -0.70496095485339    1.70479658208838    0.72220316048146
H          -1.57582885694193    1.11614809531646    0.63635937787860
H          -0.90887202365020    2.61055807310743    1.13022577570152
H           0.06258954233689    1.18142939530022    1.27815124410100
H          -0.32927666585820    1.79252873667693   -0.24032804757207
