    26
        -50.46759668  Gyration_radius:  2.50633928133 Dipole_moment: 3.257
 S          -1.21223792045935   -1.24887310447918   -1.06971434842165
O          -0.45888234927081   -2.03349033675656   -0.09733828186902
O          -2.25703318011231   -0.45169361307580   -0.49226862686507
O          -0.30494137450878   -0.45971045651768   -1.90839504464958
O          -1.87810512440208   -2.32145293957934   -2.02436126408079
H          -1.24720117521877   -3.02841688795709   -1.94441221346103
H           1.29158550255102   -0.89282199664449   -1.74537148914843
O           2.26450321347491   -1.00277881617881   -1.65311400468334
H           2.63228065293356   -0.87064771576812   -2.52828788934913
O          -1.86170440645925    1.90164671609877    0.72143911527306
H          -1.09253617770791    2.16895582168556    0.19407471426324
H          -2.18772640975180    1.09392673373772    0.27899402487841
O           2.33267295871326    0.88187338359306    0.26801951012088
H           1.68999645071511    1.48491485391183   -0.14277518510684
H           2.51624756340810    0.20462944736499   -0.41659959485761
O           0.21840512865103    1.97761053502873   -1.10377237031771
H          -0.02846641581578    1.07773126431869   -1.43052152077084
H           0.12453831575103    2.56924982741551   -1.85178003790578
O          -1.14523455429326    0.72230375214614    2.93482267138339
H          -1.92395037007674    0.20523144207241    3.14794264132982
H          -1.41711147129999    1.29546692436119    2.16438561563576
N           0.79592477254307   -0.66021227734966    1.75550694479846
H           0.30366231320023   -1.24836914355346    1.02589855528300
H           1.32287355096049   -1.25881150667209    2.38223669874601
H           1.45613082417374    0.00556895903163    1.24548442842705
H           0.06630967230509   -0.11183085623494    2.28990697134545
