    26
        -50.47307531  Gyration_radius:  2.40584060787 Dipole_moment: 3.103
 S           0.69706177599979   -1.13511286902760    0.73428628288916
O           0.29125121909012   -1.26337585929730   -0.67183104134743
O           1.95069112057808   -0.42555745504476    0.86731439783348
O          -0.36438663485552   -0.50768085371149    1.51524806070012
O           0.92095837505902   -2.57407053674969    1.28888047699076
H           0.10890442308922   -3.05066302642328    1.02993849871143
H           0.19280607199208    1.03517393998899    1.77334836733562
O           0.69149039061853    1.88375683349364    1.74078413065138
H           1.60366357095260    1.60243542426388    1.86734476047098
O          -2.76349097091888    0.36098544530504    0.75624324046074
H          -3.04989079745821    0.95991817990628    1.44709617379001
H          -1.95585610524946   -0.07589558411298    1.09585407527808
O          -1.37368955476518    0.65613426882247   -1.51798457061309
H          -2.06799553710562    0.62458688332020   -0.82952436626723
H          -0.80965528980665   -0.12054986670851   -1.32226621601252
O           2.34807448791308    0.51840608206724   -1.53512702447876
H           2.38721846091274    0.15403140288876   -0.61979904802817
H           1.84830788283925   -0.14566621522439   -2.02016541630982
O          -1.22046701285330   -3.32684461762077   -0.06020022120281
H          -0.84901964381030   -2.53419534817221   -0.49519698404362
H          -1.19178509245093   -4.03725281425024   -0.70474759134396
N           0.52159378961729    2.31909777157206   -0.87535082684868
H          -0.35076793038309    1.77152623194848   -1.18361455813889
H           1.34260304871400    1.75113960152760   -1.23033731534837
H           0.52892687612129    3.26741802874453   -1.23259662769055
H           0.56345309616335    2.29225494248159    0.18240333255901
