    26
        -50.45694980  Gyration_radius:  2.48205141997 Dipole_moment: 7.903
 S           1.71274835667777   -1.09261414226663    1.11996045476568
O           1.47597840106365    0.14637411114348    1.87708185221662
O           2.82817429490216   -1.86426129444367    1.53883089801405
O           0.41282209203377   -1.97207589249262    1.33548653833986
O           1.71881422413413   -0.77497028133726   -0.32478755122999
H           1.18649173603109    0.34109744939927   -1.24624419024987
H          -0.33509389305576   -1.35091831654946    1.25370629101570
O           0.80273508714737    1.09095902309634   -1.79332454942357
H           1.36644332055732    1.15941073181674   -2.56506973758569
O          -2.04433047001747    2.15170951097893    1.01798066290601
H          -2.03193684494822    1.17543864733545    1.11297349932711
H          -2.58026005979601    2.33941533196846    0.24491097364235
O           0.29403206103795   -2.66807673973932   -1.47388684952753
H           0.14815303498803   -3.31206901571199   -0.77767974973317
H           0.95691903570981   -2.04415780354710   -1.10360168153694
O          -1.41001106383272   -0.62162910425124   -1.69418640259525
H          -0.89589559779752   -1.46003857123839   -1.75648039478714
H          -0.76412325796963    0.07561897813665   -1.89189043863235
O          -1.79369384339344   -0.51567452070074    0.84544829333387
H          -1.69097415122632   -0.55481844392334   -0.16114701849652
H          -2.49487025010547   -1.12952527689777    1.07001039075142
N           0.62869953219563    2.20790612219668    0.66848062471184
H           1.00245069825462    1.31468716380235    1.20727973349006
H           1.15483993653939    3.02451002368908    0.95764898530306
H           0.74063759901822    2.01642700093599   -0.34444594338840
H          -0.38874998814621    2.31727533861006    0.88294530936027
