    26
        -50.45625553  Gyration_radius:  2.58412110448 Dipole_moment: 8.127
 S           0.92519849051834   -1.94586631064580    0.07369852494394
O           0.56761633821211   -3.00495637399800    0.98033150578120
O           2.02401388806034   -2.19212983422477   -0.82622572256313
O          -0.35335414537039   -1.70225100314165   -0.88257363746132
O           1.08891399903533   -0.65372164537296    0.76086479953558
H          -0.07692387725374   -0.39840951927262    1.71913071159368
H          -1.13224649768571   -1.95186106421597   -0.31399781874996
O          -0.87817096827345   -0.13666891151335    2.27333342184389
H          -0.62021658975900   -0.27713419777456    3.18577915018070
O           2.87371445767006    0.18972898298866   -1.37011078281513
H           3.26125787025183    0.42974809400225   -0.52542729388909
H           2.64051733740195   -0.77213014544053   -1.26584133476958
O          -0.64240134935027    2.15307296831050    0.89168126954016
H           0.01527073685532    2.62886439122093    1.40212680221142
H          -0.88761737701260    1.36837575313592    1.43051690452386
O          -1.53511252773688    2.82400996311595   -1.78761182438606
H          -1.47773215606765    2.79026581218865   -0.82372461762491
H          -2.37593252479482    3.22782002110539   -2.00450677697990
O          -1.98304318732732   -2.34376980826096    1.01327942125360
H          -1.90517947486897   -1.54665686612741    1.56286944084100
H          -1.19950209627791   -2.88411174078628    1.23398396883275
N           0.33134413732299    0.85418234983598   -1.36802371838163
H          -0.05842962331422   -0.10957709058500   -1.34265115526183
H           1.38711477371606    0.73288289881547   -1.45496149815168
H          -0.09381185374144    1.41990870284036   -2.10533655654782
H           0.10471223980078    1.30038457379646   -0.45660317350519
