    26
        -50.45365619  Gyration_radius:  2.53630305764 Dipole_moment: 6.276
 S          -1.02259339664925   -2.36719254268370   -0.29312436613071
O          -1.29973456545604   -2.10951536539764    1.11612383778384
O          -1.53024929193257   -3.59919126431515   -0.80686313112125
O          -1.84962255460411   -1.21931640725109   -1.08640224614364
O           0.36920263454582   -2.06788168974864   -0.59835235101195
H           0.47883571876392   -0.87358962096879   -1.56001583228620
H          -2.55439128327016   -1.75186034667818   -1.43675727046489
O           0.72822935508361   -0.05127865556911   -2.07624692504414
H           0.84545237684499   -0.33266553791124   -2.98382576438725
O          -1.88519824465879    0.41400465997005    1.47825450728659
H          -1.74499847860878   -0.54922926186452    1.31298309941930
H          -2.82317558757641    0.52541296630343    1.63512677988128
O           1.29181357938618    2.96845686237831    0.36374455155764
H           1.51046022729231    3.70963486870463   -0.20191451782966
H           0.40654737952544    2.63276176683382    0.04610024977385
O          -0.84232319633191    1.81831756693009   -0.61228122420898
H          -1.28126475385718    1.32659600423665    0.10922022512205
H          -0.51925322749952    1.14689653989661   -1.22988590727441
O           0.73038679217595   -0.66006421849978    2.03246402986316
H           0.10459132204524    0.02184567099573    2.30583947903365
H           0.16176726061272   -1.37281213497270    1.66867956019738
N           2.17358132635074    0.47803759137772    0.15857050481459
H           1.99987965678639    1.50654219909860    0.30886489792755
H           1.61154920036612   -0.06088344370391    0.89937517892160
H           1.78459117898248    0.22946289888513   -0.77416120822977
H           3.15591656158378    0.23751088411521    0.22448384210529
