    26
        -50.47444119  Gyration_radius:  2.41403589247 Dipole_moment: 1.593
 S           0.88048274693713   -1.19837503952975    1.29128738034782
O          -0.30267263335159   -1.97257798628670    0.92687775778203
O           1.74188868923808   -0.92299789066644    0.16677823498665
O           0.52630209223063   -0.00814567947877    2.05083278159791
O           1.71012903745423   -2.12397541760345    2.27081137207716
H           1.04986544199814   -2.37581815413347    2.90721268756450
H           0.46252226303969    1.41700757506145    1.29402362673412
O           0.37384542647912    2.28618487698257    0.82534834123944
H           0.58405047294137    2.95957782952631    1.47381154203164
O          -1.94280624661990    1.46668408391967   -0.45292218649486
H          -1.22987625233627    1.97809251964791   -0.03516606446845
H          -2.22221165294656    0.82382412649255    0.24006415637611
O          -2.19311285596503   -0.23636782800402    1.58045008392859
H          -1.60281387852409    0.20131269108335    2.20333432192095
H          -1.67382766883197   -1.00831726001873    1.28517353666723
O           1.75915614010961    1.29337436900362   -1.31614306640545
H           1.39477957583039    1.89570483596528   -0.64502771652404
H           1.96631066432736    0.48069614629480   -0.81209055897070
O           0.13346731819331   -2.19115663146401   -1.64383878676410
H          -0.18296778115019   -2.25069175898924   -0.71638976234326
H           1.08506326218891   -2.07715205001306   -1.53705992246243
N          -0.47819939319565    0.31073222632312   -2.29918858451873
H          -1.18604293324966    0.72641822793695   -1.61598826625016
H          -0.75277628524546    0.48242204399399   -3.25957407005708
H           0.45575699861261    0.76811847639745   -2.06696319309802
H          -0.35631253815078   -0.72457432241545   -2.11565363489626
