    26
        -50.46371059  Gyration_radius:  2.46041512743 Dipole_moment: 3.629
 S          -1.42442802185685   -1.16066283226637    1.07162553957257
O          -2.33112693389360   -0.29401749335733    1.77143230555402
O          -1.54130528112458   -1.09815472885316   -0.37981613848856
O          -0.03211260680836   -0.99301766305984    1.48477687593730
O          -1.82823464633514   -2.64419947041901    1.48433138669624
H          -2.56707827845729   -2.47751675927221    2.06029383288108
H           1.35502888074088   -0.96417899494531    0.64274801827096
O           2.14778011194927   -0.89897651095719    0.05654721595277
H           2.26451756445147   -1.77405711731559   -0.31705595067459
O          -1.11616088543091    1.54177784163779   -0.48719372638547
H          -1.49631488237251    0.64582667037748   -0.43711179628149
H          -0.86557141024308    1.76907676853988    0.43089882976301
O          -0.30153043272226    1.56587902292619    2.10035744422464
H          -0.11371624932567    0.60978678347437    1.99852904760567
H          -1.16270363951389    1.58962054896014    2.52765447117124
O           2.06403266558645    1.98317227988414    0.52029597722011
H           1.34501290564944    2.11853988204782    1.14812317255269
H           2.50056859140868    1.17330662776321    0.79758349621143
O          -0.26623917535683   -1.41711002206765   -2.67164107230557
H          -0.71994329837776   -1.41561735932748   -1.79849229980512
H          -0.96664879756014   -1.50111927126449   -3.32040277192303
N           1.02862205271308    0.74260312926993   -1.76432372971039
H           1.59717048091061    0.24479450500877   -1.03498803408545
H           1.59577020492027    1.43077002708870   -2.24616578298490
H           0.62309571374778    0.01024675238493   -2.38444631554150
H           0.21151541729033    1.21322738372418   -1.25355997541521
