    26
        -50.45784776  Gyration_radius:  2.498773517 Dipole_moment: 6.077
 S           1.52948904960488    0.18960296181267    1.70158505352366
O           0.69369327358393   -0.95853561166771    2.01817134294956
O           2.52624933576462    0.53254383465585    2.66210182781979
O           2.37085879932845   -0.25944298442005    0.38487791724705
O           0.69965489273869    1.29879949281130    1.22628648563287
H          -0.72174476931095    0.68423066351253    1.14705312731640
H           3.23969904980207   -0.08850980828088    0.73061112292666
O          -1.59918856814715    0.20733428693781    1.06521630998866
H          -1.57065104025522   -0.41810744558537    1.79480166998148
O           0.41296145444687   -2.98197616367014    0.42061423098262
H           0.20736145460003   -3.72955380546209    0.98325579470643
H           0.62555236729723   -2.23174932479100    1.03333124357599
O           0.27656900122970    2.37561857783175   -1.22294314292805
H           0.51477836593887    2.16849341574239   -0.30108161379177
H          -0.69487345931402    2.33257945295839   -1.25618637247875
O           1.09016996203356    0.04788290749015   -2.08615789625910
H           0.83759416508859    0.99890132392620   -1.93085378851020
H           1.73811337778841   -0.14761314577883   -1.39418582808440
O          -2.46003550382192    1.97696021782776   -0.88014397897878
H          -2.34390895507248    1.41704482343068   -0.09808016248510
H          -2.87237471783764    2.78782558499245   -0.57841576797269
N          -0.92692047785227   -1.25130189840852   -1.09908338929831
H          -0.12499184013892   -0.71541186696638   -1.59879783065208
H          -1.29447034628326   -0.64489116009827   -0.32318606969697
H          -1.66069565953704   -1.50217255497826   -1.75184291308328
H          -0.49288920169592   -2.08855180384126   -0.64694741242262
