    26
        -50.46398563  Gyration_radius:  2.38100148123 Dipole_moment: 5.041
 S          -0.06590505546276   -1.56979485472967    0.74164727386436
O          -1.31047046753408   -1.71378999239653    1.46641703834250
O           0.89791847498682   -2.62998604154449    0.88591280916339
O          -0.46526455619435   -1.61512736925244   -0.82991061361779
O           0.52865891910245   -0.25354713943574    0.92228759699283
H           2.92322275108955   -0.54233894287347    1.33589773769574
H          -1.11208838568588   -0.88789460391898   -0.96256946979543
O           3.06202524557568   -1.17956369536751    0.62981772378113
H           2.35170059857483   -1.85492995065134    0.76886523952325
O          -0.08147998100043    2.29708065586079    1.19724279157117
H           0.24279967337823    1.37743956781242    1.26629216940368
H          -1.01790431639405    2.22148382673126    1.40750178152280
O          -2.42814699425591    0.60261131862157    1.44530118599654
H          -1.94404281029086   -0.26534717667332    1.54771741535017
H          -3.25944866927421    0.48718152231367    1.90918177458815
O           0.34902680167105    1.90614899592168   -1.40314583828439
H           0.30078690723636    2.22486293085101   -0.46949834057694
H          -0.52482741574678    1.52403688359540   -1.56198900817539
O          -2.09430607467312    0.46940861432947   -1.16113520043598
H          -2.94229130507662    0.25729414733638   -1.55516617157274
H          -2.26000771375220    0.64034667916402   -0.19860835594490
N           1.79185779182427   -0.29398192611838   -1.50043497684723
H           1.32865795961325    0.67195256690064   -1.41806128690680
H           2.31061308203895   -0.38522997138562   -2.36832517781781
H           2.40681459945877   -0.51281655403197   -0.65385246251371
H           1.01210092078825   -0.97549949106300   -1.44138564530255
