    26
        -50.45744280  Gyration_radius:  2.5561079341 Dipole_moment: 5.260
 S           2.34830524853086   -0.35809864727190    0.22792482490739
O           2.22986235464233   -0.67013018316637   -1.19138493501682
O           2.75491475385033    0.99507063121884    0.49940429057190
O           1.11510139509327   -0.71025681831877    0.93593823141965
O           3.47182667262642   -1.31968407006182    0.78850645941597
H           3.25357725847490   -2.15737646298824    0.38812063705480
H           0.19787786536777    0.34362615094325    1.69224059774736
O          -0.36455262669627    1.05628334096971    2.09921610163070
H          -0.04306109403918    1.15958549987928    2.99600414363564
O          -0.16880495840419   -2.60011535332686   -0.53370609296743
H           0.32735493815018   -2.00595533808318    0.05061439554040
H          -1.02879379624977   -2.18029361417641   -0.64715286852216
O          -2.38234904737475   -0.78224252024860   -1.03504829115465
H          -3.15895307696127   -1.28707822571334   -1.27745921663808
H          -2.58411761868341   -0.34340673704068   -0.17495019697320
O           0.54532089121535    2.29353142622338   -0.17552716099259
H           1.46358990178809    2.00085759260278    0.01378124117979
H           0.07328925279512    2.11376286332377    0.65491268889395
O          -2.85869820918414    0.52557804407931    1.23078529428439
H          -3.22542133402267    1.40655998189760    1.13819912409188
H          -1.97343675865920    0.64112710873242    1.63401944888737
N          -0.02169136001641    0.37236437938686   -1.88320072594297
H          -0.04894019687734    0.63958956018997   -2.86176304266175
H           0.08492973631724    1.22785801656201   -1.25362661912191
H          -0.87003192688190   -0.16103282972710   -1.63088922380125
H           0.86290175534621   -0.20012379617572   -1.68495913554456
