    26
        -50.46538264  Gyration_radius:  2.49562421305 Dipole_moment: 5.273
 S          -1.29988189787718    0.81786255181746    1.26867649902140
O          -0.65386490555365    0.62879600357564    2.56135999080715
O          -0.52609488546340    1.63114947382841    0.36033179420871
O          -1.70078507527218   -0.46286347529482    0.69424878389156
O          -2.63568051716917    1.61786634709006    1.55256091594699
H          -3.04861691822145    1.14724783403212    2.27043555780653
H          -0.50286135339559   -1.53526536979206    0.52763039967057
O           0.26952851241311   -2.15260863814161    0.46226480654660
H          -0.10024897411325   -3.02690962474154    0.32937614630733
O          -0.30313953058779   -0.25260807933770   -3.34982632526444
H          -1.01863668869538    0.11055114132191   -2.77867425959878
H          -0.15485196791537    0.39887307188161   -4.03620948695286
O           1.67364151305202   -0.84060231627854   -1.60826166105844
H           1.02182902215413   -0.64716398263551   -2.31352159242836
H           1.21143039760468   -1.42271294923692   -0.98790502171472
O           2.10514374315550    1.21104520195282   -0.02960338291244
H           1.20902487143420    1.59445462483376    0.00956178062772
H           2.05989834391848    0.52596816724923   -0.74899223318268
O          -2.08879740144314    0.81604831293907   -1.65669098267145
H          -2.26760016224891    0.11328784746120   -1.01663571756703
H          -1.53397785845995    1.42872726565656   -1.14900339725532
N           1.68350333868212   -0.35738156499583    1.95508337129002
H           0.79171899466864    0.06391792372489    2.34422748043854
H           2.38692932644327   -0.49092940499010    2.67267688511257
H           1.41335969984150   -1.24708060988748    1.50928432067366
H           2.00903035297874    0.33033024797067    1.15760531828259
