    26
        -50.46492027  Gyration_radius:  2.39772193722 Dipole_moment: 3.482
 S           0.94771214139501   -0.21207303611737    1.09120215424448
O           0.03909875998241    0.87726894988289    1.42236013341090
O           2.32528147861305    0.08137452211275    1.45307343690253
O           0.47510378310147   -1.47878457233290    1.86232937473974
O           0.88543609001019   -0.53646765653057   -0.34066557072489
H           0.05822696315211   -1.97576938779646   -0.60558762189833
H          -0.51117809475329   -1.33944862717072    2.00605159515889
O          -0.58454829462914   -2.71706188272486   -0.61482183142886
H          -0.45553578445035   -3.17227214866288    0.22074391925807
O          -1.98438626392326   -0.73871970347369    1.97366881263453
H          -1.56473881798790    0.13721916052040    1.95151453316166
H          -2.37814962804195   -0.85243263816634    1.08569420839003
O           0.39867148683055    2.68718406858568   -0.44099390627437
H          -0.16278775110772    2.22804708167414   -1.10956976231581
H           0.17982265076779    2.20912455103526    0.39057211199177
O          -0.86329862254331    0.81928527493076   -1.84121074758699
H          -0.20464962622065    0.24909306727642   -1.39872335188188
H          -1.71258200084794    0.45841495604428   -1.55797099163464
O          -2.68585399869333   -1.08008090001486   -0.64624223751569
H          -1.95414389337944   -1.73679849159768   -0.74281376528585
H          -3.48187594332722   -1.51242961789057   -0.95877679856855
N           2.68418017546867    1.53506579691173   -0.65860240436918
H           2.60487926522631    0.86180059410572   -1.41806082373541
H           2.68114739608984    0.96689135761669    0.25542886224514
H           3.51657301274837    2.10909283135659   -0.75121381043184
H           1.74759551653637    2.13247645046400   -0.62738551848939
