    26
        -50.46920393  Gyration_radius:  2.49052384663 Dipole_moment: 5.270
 S           0.38590189255932   -1.04511219408142    1.03524851236685
O           0.88621158698796   -1.25098581590898   -0.32700746368705
O          -0.28446011552586   -2.20123578783923    1.55939018710108
O           1.67023714431695   -0.73629000636075    1.90867776699482
O          -0.39209428220752    0.18954539736970    1.12084539035590
H           0.69041943534730    1.42350747850694    0.84703025046111
H           2.15771835614347   -1.58286208336508    1.89573444931625
O           1.29381263843558    2.10988571664537    0.48244579348873
H           2.12652160913726    1.98103465541417    0.93930573234492
O           2.16576511268731   -3.24213886460757    1.21048024462250
H           1.23621078185726   -3.31057051741976    1.48218638510224
H           2.12834174580250   -3.00500934661964    0.27765935748443
O          -1.77330090085295    2.46521889331940    0.37555163269973
H          -1.02517100635318    3.06403018401746    0.44198661869938
H          -1.49161526269670    1.65213190994322    0.82051348573712
O          -2.00903853413520    1.13289281059829   -1.94979395407607
H          -2.30302351162299    0.26930819543362   -1.61415667855872
H          -2.12943259450842    1.74437365824327   -1.19160547471267
O          -2.23728859836972   -1.12190189372841   -0.41823498926064
H          -1.68006137652315   -0.69857733782110    0.24956353520633
H          -2.21522201551536   -2.05705539465080   -0.20781273893834
N           0.57519100097049    0.85687032579139   -1.81678098922291
H          -0.49048819285471    0.99541298053230   -1.96233098366170
H           1.07962798301257    0.86825883889192   -2.69604009159872
H           0.93241855558249    1.57081204673101   -1.15397035673899
H           0.70281852832775   -0.07154384897962   -1.30888562150745
