    26
        -50.46663420  Gyration_radius:  2.52331021841 Dipole_moment: 3.122
 S          -1.24958536583469   -1.23865754749377    0.91871123312383
O          -1.18796046782911   -1.70722766924246   -0.45831130844375
O           0.06542155103334   -0.95784551362101    1.46165254342562
O          -2.17480770983390   -0.13435525613505    1.08454372922190
O          -1.82410570728082   -2.44608626771831    1.76946351212588
H          -2.66181824663567   -2.60133065076706    1.34612406078278
H          -2.43823208761259    0.71571433890517   -0.31173043162951
O          -2.54645059703072    1.30992291838796   -1.08849284481392
H          -3.35045692853470    1.80710760579926   -0.93165321923250
O           2.61322984209569   -0.04255806790287    1.42647365673825
H           2.38897112274217    0.88737634395448    1.51937494006338
H           1.77745728439178   -0.51867189318564    1.56955539762609
O           3.04146509030239   -1.07035455419930   -0.97120522264557
H           3.01696359284313   -0.61946700749438   -0.09127899894283
H           3.19638730003582   -1.99703621304659   -0.78116552111252
O           0.00516469148881    1.68767668266246    1.58863656833084
H          -0.88264576828886    1.92811609657788    1.86271580222059
H           0.00817840705969    0.70849783463106    1.61042581281924
O           0.02672709435690    2.06874814323097   -1.07845904937230
H           0.14601107294419    2.06353151949961   -0.10472661700997
H          -0.93907155533007    1.98060511318929   -1.20874813216886
N           0.60087172710972   -0.37233779334181   -1.84145115693615
H           0.44764000396778    0.65599904860840   -1.57405605057503
H          -0.11416738056352   -0.94717737746868   -1.31401490610801
H           0.46524154579065   -0.49080475111042   -2.83984140268146
H           1.56957145861430   -0.66938507271584   -1.56254242480986
