    26
        -50.46086772  Gyration_radius:  2.49829911827 Dipole_moment: 5.113
 S           0.04956624823736   -1.73791339471877    0.97354433539704
O           0.07910166806480   -1.28670841865323   -0.43112239309343
O          -1.05381387406832   -2.59524449257673    1.26906681678433
O           1.38652004752476   -2.49734284144056    1.21796757078775
O           0.07890230758410   -0.53794361677597    1.83943609958509
H           0.65774218131516    0.72247118044662    1.18091842906254
H           2.06896783809263   -1.85493703658486    0.92788378487842
O           1.04764849630930    1.52337365543304    0.71180653040530
H           1.22558892284346    2.16813081195966    1.39869495054415
O           3.00787363227468   -0.47222401465277    0.60681584334103
H           3.56444413580361   -0.30717573068150    1.37072794020504
H           2.41094976138312    0.29173604401526    0.51477911896816
O          -1.38452160066594    1.32358368301276   -3.02586093142308
H          -0.43206949653159    1.13851894738033   -2.85576285554707
H          -1.62991681220195    0.78556809943409   -3.77926673330200
O           1.05560607289211    0.62534328264477   -2.12107358519465
H           0.87983617805103   -0.22986774803544   -1.69303454568993
H           1.32239146773690    1.20919490091949   -1.40406628868445
O          -2.59438343435782   -0.33920948505190    1.73102491591442
H          -1.67798667928184   -0.31564130655707    2.06341966291550
H          -2.73680934253622   -1.28252640535431    1.58732463661993
N          -1.50123750203318    0.76001185252175   -0.42312502096413
H          -0.88962906239954   -0.11935069037426   -0.50969008675650
H          -1.82279033176579    1.02433808940837   -1.37575435723905
H          -2.22935989672505    0.51479024115449    0.28458412268826
H          -0.88262091541923    1.48902438321839   -0.05923795018262
