    26
        -50.46416139  Gyration_radius:  2.59511397473 Dipole_moment: 3.304
 S           1.24678411080875   -0.78889119416937    1.59611895377849
O           0.71977071169315   -2.07635941146185    1.16848006304372
O           2.16598850509588   -0.22892555471093    0.61074661258287
O           0.22331075895586    0.15410942350793    1.99369302640456
O           2.10297077129479   -1.07490689327909    2.90174420780917
H           2.68833112506695   -1.78070089480798    2.64453873276676
H           0.41976325691521    1.96617283693097    0.99697906182477
O           0.84774560694331    1.96148408765266    0.13194982688064
H           1.51449122007466    1.24126203093899    0.23534341099797
O           0.98357547419498   -1.62988614624575   -1.39997329748329
H           1.79937563810641   -1.13964046649276   -1.23777526113173
H           0.78846251216216   -2.01031312771410   -0.51606414161304
O          -1.86227509393859   -1.44951586779875    1.75921764327561
H          -1.27055054019900   -2.17344373342144    1.51833685494299
H          -1.23413951417700   -0.74254647343206    2.00763306173573
O           0.29888229236963    2.70915945613046   -2.57514166730795
H           0.63565835690403    2.71542697952775   -1.66802327255850
H           0.80498750659182    3.36091690927172   -3.06083911394068
O          -3.01889031884607   -0.38246732052451   -0.34269064255034
H          -2.64958511376132   -0.86894960487303    0.44303575600779
H          -3.66901812363493    0.22652571275091    0.01007061696151
N          -0.72561041368786    0.40115483226882   -1.45626894967545
H          -0.12609597409835   -0.46528486123726   -1.56544352184305
H          -0.76518751096739    0.92862953973655   -2.32899449542358
H          -1.67990317575551    0.13264125723525   -1.10609931911781
H          -0.23884208810840    1.01434848420941   -0.76057414636416
