    26
        -50.47301029  Gyration_radius:  2.48587033111 Dipole_moment: 3.140
 S          -0.19743384751939   -1.59545860946765    1.22863548622829
O          -1.49302546749277   -2.14039257671069    0.87083254854896
O           0.72529993656083   -1.52965381343571    0.11065112176878
O          -0.31509644603766   -0.32734707798974    1.93437214640107
O           0.45039726151503   -2.61742943686331    2.25260932253933
H          -0.24075279932510   -2.74965714590253    2.89336709146381
H          -1.18563778200824    0.85393409650155    1.12108062178193
O          -1.64102801434680    1.41364600240678    0.45427508497034
H          -2.20515950354672    0.79670325575194   -0.04153947351595
O           2.30418802260660    0.04792959188190    1.52749983412442
H           2.00808504850305   -0.66278917066836    0.93065127998063
H           1.50363229627073    0.22341012170504    2.04319155139080
O          -0.17819741188151   -0.63175807841370   -2.21930666868631
H          -1.12917415016578   -0.72230557833515   -2.03789327927687
H           0.25289836365466   -1.09157312664238   -1.46847344068729
O           2.65132369383372    1.94932655505089   -0.24831891953566
H           3.40449441144131    1.64705507334015   -0.75826606242321
H           2.56469699203299    1.30443213818327    0.50501156442357
O          -2.62999088524997   -0.73237053517073   -0.97431752737081
H          -3.49494635281163   -1.10257347429813   -1.15760603698760
H          -2.22879305089133   -1.31238008230718   -0.27401955534600
N           0.22273320230801    1.81841157690542   -1.35281710951925
H           0.13834160851082    0.86897044920599   -1.83261613606136
H           1.18462150579578    1.91728269806814   -0.93521438047845
H           0.03565676647970    2.57725742791251   -1.99852302257986
H          -0.50713338823283    1.79732974929997   -0.57326602114902
