    26
        -50.45231377  Gyration_radius:  2.52461149868 Dipole_moment: 7.576
 S          -1.02310085925803    0.27575777328644   -2.26485309390496
O          -2.06373847280804   -0.11772957869053   -1.29540475558624
O          -1.48538227391722    1.12702986719221   -3.30695523767504
O           0.02226987972579    1.11249107661354   -1.35859998464365
O          -0.23274882643472   -0.87674670263186   -2.67918576982050
H           0.66232602443728   -1.62250563343974   -1.70402588314930
H          -0.49858701205275    1.57149611151792   -0.67478738028806
O           1.17154616180443   -2.14750419300834   -1.00084482159596
H           1.57073137082493   -2.87966210368587   -1.47236407169188
O           1.42808231265686    1.22545329228397    1.99785436888618
H           2.17075685173846    1.50186352073421    2.53542434706571
H           1.81726889982268    0.81024450095449    1.17588144865333
O          -0.79464572384647    2.38015679906832    0.86941192864867
H          -0.77029214766697    3.32204755005742    0.69484585485966
H           0.05156411053479    2.14156748051711    1.29457229999784
O           2.32958450005835    0.21566644587150   -0.23072494458835
H           2.13357284770333   -0.72560383764038   -0.37601373307381
H           1.70527004533781    0.67199471182431   -0.81980885835863
O          -0.93625854086546   -0.08864646730811    2.41744405080256
H          -1.47324890112238    0.62949084680518    2.06389902909473
H          -0.02890834970553    0.26477277109726    2.43357918587798
N          -1.14647696703278   -1.78908910192582    0.35812016424515
H          -1.03663247748442   -1.23638268724328    1.24391239001120
H          -1.76222139282439   -2.58153884242294    0.49975977364499
H          -1.58484942064967   -1.09244477219897   -0.39070042455106
H          -0.22588161897298   -2.09217881763401   -0.01043591285773
