    26
        -50.45253054  Gyration_radius:  2.52325370691 Dipole_moment: 6.017
 S           0.68248616503712    2.12887161791403   -0.55974241407776
O          -0.56458078092472    1.60702436378081   -0.04358704235222
O           1.32485521638061    3.11871666879506    0.22356356898400
O           1.65720198716378    0.94812371477902   -0.76786460795855
O           0.43480502835014    2.66237780116088   -1.98995450793812
H          -0.00685320749447    1.93482602095450   -2.50237923632717
H           1.20033214980115    0.03193630212844   -0.90144995893367
O           0.80082554872126   -1.81100707248903    1.64732441568313
H           1.50034428380376   -2.28134319834356    2.10234778732995
O           0.53715530321140   -1.30390426668022   -1.00578787046787
H          -0.43605036412272   -1.10650622205809   -0.98966774251270
H           0.73059874601652   -1.65586979632381   -0.11529257457517
O          -0.61327058375433    0.52155710412755   -3.07369852938566
H           0.04525530977319   -0.17995181994721   -3.04514299427250
H          -1.35466753496722    0.21736034071886   -2.52924470226655
O          -1.96968023714938   -0.49413507188131   -0.83057207996022
H          -2.22506315074486   -1.02783208853081   -0.05464701604385
H          -1.66381633329372    0.35794771566265   -0.46238217673332
O          -1.95083553812134   -2.06857812473846    1.39164552288099
H          -0.99947218730046   -1.99548334184877    1.58217619345639
H          -2.16111081699557   -3.00331943747836    1.38438157605164
N           1.04135603912948    0.77280176425422    2.16765371762400
H           1.00350369038302    1.14445116281539    3.10957266137037
H           1.84613065918993    1.18609040429036    1.70949515348568
H           0.90556740645579   -0.83952125591996    1.88778633975889
H           0.23498319130122    1.13536671518807    1.66546649732090
