    26
        -50.47460349  Gyration_radius:  2.41944114308 Dipole_moment: 1.179
 S          -0.14525108873467   -0.79738126468029    1.81933213131249
O          -0.93123692337565    0.43334866515903    1.75476108491508
O          -0.52086561435420   -1.75016449637822    0.80325523413816
O           1.28145398256825   -0.51766338355230    1.85236035381036
O          -0.48927910841151   -1.46555353360578    3.21211900317177
H          -0.03593213591781   -0.89118952550581    3.81969088298524
H           1.89344831015231   -1.29566931667767    0.53267013412823
O           2.00307497767305   -1.81175169602355   -0.29794423050278
H           1.34906128917336   -2.51266690965419   -0.20665411921088
O           1.06919648507088    2.12080838640373    1.21368735025960
H           0.25593391873380    1.66897729485848    1.50703163715058
H           1.75937083293491    1.47771954905894    1.40885682529160
O          -2.14619434108791    1.23011162889491   -0.42267414427734
H          -1.72482621322728    0.90760157020446    0.41176878542225
H          -2.91098122473697    1.73988557363360   -0.15175570483594
O           0.31777919890558    2.10065324524868   -1.34315745273433
H           0.71749737051657    2.24717034994428   -0.45487457828194
H          -0.63082493368077    1.98385574539752   -1.16376019798983
O          -1.61654062758153   -1.20789651044001   -1.56364259244462
H          -2.04781887465396   -0.36663590247479   -1.33901011680666
H          -1.33701680486709   -1.57181055533920   -0.69858783833785
N           0.79725564778151   -0.34489292807901   -2.16224929007783
H           1.16111602238986   -0.43444390482656   -3.10399249604155
H           0.72274511723161    0.68200427236986   -1.87484996489747
H          -0.18691358178843   -0.74727981789516   -2.08076021229238
H           1.39574830928692   -0.87713653603377   -1.47162048385273
