    26
        -50.42864421  Gyration_radius:  2.64488971049 Dipole_moment: 8.385
 S          -0.49305472909370   -2.87134935616256   -0.71061284525133
O           0.78361427948551   -2.40058336997993   -0.20821821073774
O          -0.57894836519407   -4.23640750456049   -1.06788570256399
O          -1.57381618664762   -2.51125522874531    0.34181984717997
O          -0.88863966545486   -2.00681552427017   -1.92968724666021
H          -0.85471770032294   -1.02368072655870   -1.69810941900551
H          -1.17089092480444   -1.95000804689805    1.08725665636908
O          -0.80027318977779    1.18758945783845    0.96766703318833
H          -1.63311684745698    1.59008114083580    1.20572929689222
O           1.63219218234194    1.48648591132639   -1.68948498538213
H           1.47974605035026    2.28474196412965   -1.14736009105320
H           0.74365971654632    1.16241939531082   -1.91897175508635
O          -0.69436115519310   -1.00760141509108    2.18882141398010
H          -0.78221820193369   -0.08768591950689    1.72640503301879
H          -1.34416723355733   -1.03196052641742    2.89210195692743
O           0.84427914727174    3.11809361455069    0.31360788790316
H           0.18836625676487    2.43162696227909    0.61844864136779
H           0.41273306258937    3.96802160684628    0.39306043904414
O          -0.90990588993015    0.49303721562106   -1.40363682316378
H          -1.75136163502512    0.78311572206843   -1.75554948364066
H          -0.89478966011863    0.78185619447206   -0.36068293123287
N           1.67726638206857   -0.03273697790049    0.44605711220665
H           0.91759126895080    0.44485571408227    0.94636046148456
H           2.51168034885005   -0.07910406290132    1.01993336860782
H           1.34076152405346   -1.00860648311706    0.20308496148359
H           1.83837117523858    0.51587023275488   -0.46015459587930
