    26
        -50.46275669  Gyration_radius:  2.5547859927 Dipole_moment: 4.428
 S           0.38578163822712   -2.34794314603580   -0.15876595863498
O           0.82553717132137   -2.72114094717728    1.16450607663747
O          -1.02288679584867   -2.12003026355080   -0.32598087091659
O           1.15847410543018   -1.19987936588261   -0.68869351031407
O           0.78136438934538   -3.57081329992174   -1.10256722676527
H           1.46395961341347   -4.00798348247678   -0.60281932134288
H           1.63135191198863   -0.00618141092697    0.32723599472412
O           1.81806151753251    0.73248648128359    0.95639827099980
H           2.75895614879576    0.70730707350624    1.13330915412761
O          -0.24120086738071    2.59157608832087    0.71903467743137
H          -1.02267237742625    2.09395928899071    0.98046200418303
H           0.52017641490544    2.01320347629077    0.88929080955511
O          -0.16780635322866   -0.56522459078356    2.36709131804887
H           0.11104667456876   -1.45307527906908    2.06966896193875
H           0.59024632124053    0.00853810838474    2.17948022188282
O          -0.11386601716083    2.85330684881454   -1.91029771125236
H          -0.20559196279997    2.95451240737017   -0.93097034141764
H           0.77588338337265    3.13534585115930   -2.12681459407935
O          -2.09296930943238    0.20764650096332    0.76195325050548
H          -1.40578595870329   -0.04719779283951    1.43648951935442
H          -2.53595593509029   -0.62797260173216    0.58384191315356
N          -0.80392013284548    0.28656461407382   -1.57154944239478
H           0.04130126905139   -0.30428232167016   -1.33751880792811
H          -0.53307697878236    1.25637904943709   -1.86478842103922
H          -1.35157680128094   -0.18987709377936   -2.28016751664121
H          -1.36483104921678    0.32077581725433   -0.66782843981956
