    26
        -50.46814465  Gyration_radius:  2.48584262826 Dipole_moment: 4.356
 S          -1.37989527679951    0.06180742094350   -0.18211096769818
O          -2.30882762322295   -0.34495396257270    0.97040122472475
O          -0.59492301716676   -1.11071553170634   -0.59038618136210
O          -2.18471264677910    0.57110515110316   -1.26291997634150
O          -0.45507367408946    1.09391469311863    0.34097954643875
O           0.83322434642681   -2.28060763949640    1.25930078896504
H           0.58476264289904   -3.20600888768820    1.29224457190673
H           0.25569378974895   -1.86741063375772    0.57201740691222
O           1.96002916309828   -1.22046577440952   -1.33856297819175
H           2.32581231646005   -1.54350439355103   -0.50907004751403
H           0.99035399757735   -1.32401623406523   -1.23275816062055
O           0.11953112253687    1.67071189548970    2.86919841049793
H          -0.04342289460507    1.54484389481962    1.91117670773880
H          -0.52998633645583    2.30905125222304    3.16849644169579
O          -0.68287547873389    0.98404279942352   -3.33718591986210
H           0.60125434407255    1.27769234389066   -2.41125512727735
H          -0.70742236613959    0.15105733881115   -3.81230529453267
H          -1.35595506036552    0.89387185691404   -2.61293616132455
O          -0.76411944042110   -0.87147437871382    2.93088022516834
H          -0.05524030568265   -1.40291199705767    2.51771914151293
H          -0.36789691194174    0.00469704559348    3.11945655158343
H          -1.73407133042536   -0.57911805164987    1.77648968434103
N           1.25231186816260    1.31868365392221   -1.57714905496361
H           1.77763435532993    0.40894421303089   -1.52883773713526
H           0.60020271986827    1.33370683125254   -0.72686207494490
H           1.86361169663068    2.12705710412320   -1.60602101971125
