    26
        -50.46147048  Gyration_radius:  2.59201656024 Dipole_moment: 4.232
 S           0.42835063435337    0.14994344275921   -0.59209187360979
O           0.31187361478082    0.37976723519585    0.84113452898077
O           0.38388626792227    1.35617515128961   -1.38291036045785
O           1.60351519535518   -0.69293533856094   -0.87241306802353
O          -0.78779981229515   -0.76432688587099   -0.99131462911316
O           3.26127580403448   -0.94367424539877    1.24481598521900
H           3.63289869096543   -0.09214935860379    1.47975781517073
H           2.76997141839337   -0.80169794414651    0.41108423213393
O          -0.70542507687000    2.85806469964172    0.55167297169139
H          -0.46262284139300    2.10410187671593    1.10840061719145
H          -0.23791509961919    2.65610998475214   -0.27598782604519
O          -3.17893696893111    2.39175016486332   -0.32337398096325
H          -3.60689915682212    3.23116153889364   -0.49876247290084
H          -2.31521251269066    2.60711753322640    0.10453999754280
O          -2.10950607729503    0.95553989587438   -2.30868624977479
H          -1.41644118724795   -0.17965388569654   -1.52857207604567
H          -2.64492884923786    1.43607845100160   -1.63452494378739
H          -1.26440559189287    1.42798545703726   -2.35662190127948
O           0.92135926139620   -1.68591857959458    2.33902372620621
H           0.67694687771952   -2.52373766820730    1.12848374061534
H           1.88734788499680   -1.54365838722636    2.26633911017685
H           0.55311408907357   -0.84958231836420    1.96740115843694
N           0.58805310103251   -2.85022099265506    0.08005223944778
H           1.00241424827378   -3.76040896772379   -0.09266110354570
H           1.09393646818855   -2.05759403486317   -0.44528549062426
H          -0.38485040218418   -2.80823684433149   -0.21950013665847
