    26
        -50.46147052  Gyration_radius:  2.59199044314 Dipole_moment: 4.229
 S           0.50038292977449    0.28101672436724    0.47657874159034
O           1.18935899264664   -0.67001375670558   -0.56984631961269
O           0.77133244884187   -0.21352689577973    1.80488881477498
O           1.10735942925180    1.59536586010152    0.20437645479743
O          -0.91470881524348    0.30645773510594    0.13394009871354
O          -0.68327152306106   -3.73890218151920    1.21814809490987
H          -1.14138371121269   -2.92052667057688    1.52786422830108
H          -0.85067839827659   -4.40717001016292    1.88443531386500
O          -1.61368855620994   -1.40158905089980    2.09733423373006
H          -1.83542432077016   -0.87957034115137    1.31262289552105
H          -0.76100836498065   -1.01696636403394    2.36078195911755
O          -0.71691404050497    3.53580205235284   -0.24284276193070
H          -1.24975754373833    3.67898330338022    0.54072719514196
H          -0.01116528344168    2.91268020807197    0.02223243944288
O          -1.50041065415118    1.68072043879673   -2.02271118641674
H          -0.06831872227763    1.51572079183384   -2.40847255919001
H          -1.48363983546310    1.04203758656479   -1.27110589575150
H          -1.46450032707064    2.54648330345283   -1.56678628179189
O           1.72313321430604   -2.59514704505484    0.99509643590148
H           0.90492951430360   -3.14507283127267    1.01035494763630
H           1.44955362699948   -1.50706512431540   -0.06245863531642
H           1.60669173857695   -1.93378980656804    1.69422890688499
N           1.02304580683538    1.37590431679771   -2.35239950411104
H           1.21932435625919    1.55835327816667   -1.30921983177938
H           1.53924198263983    2.00130070180390   -2.96272064805647
H           1.26051603596946    0.39851378724419   -2.51504713637661
