    26
        -50.46147061  Gyration_radius:  2.59168277759 Dipole_moment: 4.223
 S          -0.28432310223207   -0.44207043933687   -0.52999758472777
O           0.05081269313611   -0.40144171956326    0.88651602809390
O           0.07317916713467    0.97663168858503   -1.10765691955767
O           0.44017815605952   -1.44415138385317   -1.27378105893472
O          -1.74537902079694   -0.52777684038635   -0.69858529080990
O           3.94067528143503    0.03793658383551   -0.61334491164282
H           3.43030650366088   -0.61558330038789   -0.07673495260076
H           4.78563471485828   -0.37299609497958   -0.80195050830459
O           2.36079060295340   -1.75191777998355    0.57059810633284
H           1.74263717835866   -1.25109871214487    1.12245713244227
H           1.81201789552244   -1.96756953400530   -0.20182074150040
O          -3.04605638621910   -1.12426913049548    1.59163240309417
H          -2.79214378628761   -1.99476338804342    1.90179558475665
H          -2.63347885022876   -1.02188115844499    0.71074373713110
O           2.07516697247329    0.29659099677444   -2.51137724295303
H           0.88708301053775    0.84550121294947   -1.69597619219997
H           2.83935107614693    0.31910276290327   -1.88890985200736
H           1.70365855049903   -0.59572818343072   -2.43738873034203
O          -1.59754951772545    1.00195035979269    2.36868614213271
H          -2.27040132035948    0.29226069547442    2.41726886615835
H          -0.81826688262244    0.53240936160959    1.98754405138413
H          -2.01021517278870    1.68298974178903    1.10637754448791
N          -2.21685705319277    1.88451868241263    0.04325696880926
H          -3.11610591601861    2.32824429440396   -0.11310151615842
H          -2.16011135525631    0.89866301514009   -0.38711557634582
H          -1.45060341904573    2.41444826938268   -0.36913548673933
