    26
        -50.46147052  Gyration_radius:  2.59166010671 Dipole_moment: 4.223
 S           0.56196457242197    0.38258829086831    0.30820512711712
O          -0.70666448844551    1.29348924650232    0.12069624322356
O           1.57369892019901    1.01341160922102   -0.55711647484933
O           0.92551616320047    0.37195736032115    1.70469017982401
O           0.20456259663663   -0.92710972951306   -0.21835316153902
O          -2.49542856532479   -0.86684940183583    2.98790232875487
H          -2.70477210406878   -1.16465380166133    3.87440619684813
H          -1.71139057517713   -1.39326065563380    2.69857321618438
O          -0.20992343517073   -2.00068065107493    2.21862702149717
H          -0.24358157160348   -2.06079752380775    1.25292909210210
H           0.36572027318353   -1.22921353333405    2.35261862845332
O           2.67917569516012   -0.70378311241097   -2.32401083652960
H           3.15876234567494   -1.39345651718170   -1.86271714888648
H           2.40720667646771   -0.06101305249038   -1.63878678861406
O           0.06517390366037   -1.06194135081090   -2.83467868668684
H          -0.04274254270281   -1.19568722552163   -1.86331244069473
H          -0.09296369378815    0.42179003981199   -2.81279421958287
H           1.03425366421642   -1.13697071800703   -2.95314081811693
O          -1.35336205158813    1.51332288362705    2.56483810860101
H          -1.07944150483071    1.45371907537417    1.04870198282461
H          -1.90741947656098    0.71959375607249    2.75206391771535
H          -0.43882951881183    1.23954133216862    2.73326060411741
N          -0.03155420485522    1.47821053602002   -2.50631096380492
H           0.72152827771924    1.44518511068035   -1.73691925554587
H          -0.89362599761470    1.75970537716770   -2.04188293559592
H           0.21413665199754    2.10290267544747   -3.26748891681830
