    26
        -50.46147058  Gyration_radius:  2.59161442106 Dipole_moment: 4.224
 S          -0.33821575078837   -0.16669006307830   -0.64430221115710
O          -0.54447254533675   -0.13053525803061    0.79673729504382
O          -1.22296196310794    0.70119644007848   -1.38346925907157
O           1.14588333557224    0.29400822645927   -0.88812840427877
O          -0.35162717901001   -1.56116527386066   -1.11924667947444
O          -1.28506658128210   -3.30129896057947    0.72278548498300
H          -1.04860985680633   -2.71708955900509   -0.02517745717353
H          -2.20213065226946   -3.11104499171581    0.92588561111622
O          -1.89203259594848    2.20212915514909    0.73410266577035
H          -1.95804730975665    1.82464823366197   -0.15895784005566
H          -1.47263924564155    1.48146373753665    1.22622377131275
O           0.02341389065687    3.98182963338505    0.21911522582392
H          -0.69551194468183    3.37561952721611    0.52112752937004
H          -0.37488509564106    4.84984993601508    0.13966142182100
O           0.63844495259724   -2.05699386440803    2.12789181953548
H          -0.04948571065066   -2.72116269076766    1.91714705383676
H           1.53281473497155   -2.20472107291915    0.94246832003055
H           0.21673679588469   -1.21312057712579    1.83955946860272
O           0.65102798018794    2.54644130720450   -1.94775548153929
H           1.09091650196412    1.21252920843693   -1.31123944645092
H          -0.22971917975264    2.17267222854400   -2.10368099434904
H           0.54653652201999    3.16564142219587   -1.18773015857386
N           1.91551636243966   -2.18891025095090   -0.09052381157725
H           2.40580513907323   -3.03898986383405   -0.34938102968344
H           2.48389272056079   -1.35694280005534   -0.24175944795938
H           1.01441666475501   -2.03936383954239   -0.66135344590057
