    26
        -50.46954180  Gyration_radius:  2.39859455661 Dipole_moment: 4.982
 S          -0.81466094533599    1.08927300833772   -0.82425050038222
O           0.30283486275284    1.49141067095303    0.05564440939239
O          -2.10625216500926    1.31773662742614    0.02123987070303
O          -0.86244436889715    1.89028202862815   -2.01621447799509
O          -0.73200324301662   -0.34417831537944   -1.11357993779097
O           1.09843263084861   -1.88517035365718    0.03157747440502
H           0.35799462981004   -1.47011769058009   -0.45977824819844
H           0.82010861448043   -1.83598106750767    0.95948228178825
O          -0.23676489866713   -1.38044123685550    2.44259449663311
H          -0.19985068042232   -1.75415735539380    3.32396264765910
H          -0.26117326677339   -0.39584933913463    2.55397923669907
O          -0.47964043500110    1.24382601218096    2.54297552721002
H          -1.38622957364545    1.55950635475869    2.52370526282286
H          -0.12125722888451    1.43906121452735    1.64748191156384
O           0.99671424024132    0.46819510844679   -3.23135364447447
H           1.98339803829718    0.26236554248075   -1.94661964765490
H           0.49595761386093   -0.34166666072597   -3.36184711088547
H           0.32841196416247    1.11641467642465   -2.90814852404997
O          -2.41721448180194   -1.14926972136360    0.76464585057034
H          -1.95826951249454   -1.28055799755424   -0.08036254372455
H          -1.75275333886807   -1.36052574624435    1.44628199287639
H          -2.36219462514155    0.42390908580542    0.38228828827163
N           2.30979343523116    0.22991185991876   -0.94103747025223
H           3.27816143246259    0.50836765711867   -0.83207504335638
H           2.09222948531059   -0.72309958695828   -0.53529948859576
H           1.62667181649375    0.88075523438643   -0.44529260322482
