    26
        -50.46954184  Gyration_radius:  2.39865024313 Dipole_moment: 4.980
 S          -0.94452838944741    1.09366808342082   -0.66477723181069
O          -1.28818087693336    1.79626013751789   -1.87016298714336
O          -1.90693501366657    1.51601646205771    0.48873363085989
O          -1.05224186925543   -0.35968159523255   -0.81124396617795
O           0.40941440012797    1.45388560468820   -0.19371092622051
O           0.38666954432764    1.48745661092656    2.42511392204244
H           0.47532358912986    1.57313916095279    1.44875707383009
H          -0.46032094637533    1.88778902683437    2.63542675151539
O           0.92296903063475   -1.97564067428890   -0.08647970447150
H           0.10088268080756   -1.53126956099298   -0.38402743626361
H           0.93750490464795   -1.82397626686744    0.87148428048073
O           0.40458184107382   -1.14738651329794    2.53949074770636
H           0.48331183343822   -0.15929866362637    2.54733489955734
H           0.67536573688236   -1.44972874278441    3.40732270521338
O           0.02095646036474    0.10423728480287   -3.41248658389593
H           1.32807548364353   -0.09337902290949   -2.45345189005427
H          -0.55198534375638   -0.65994390779982   -3.30563298161832
H          -0.47357317704810    0.83935272462266   -2.98097482859825
O          -2.15429667952715   -0.83987924491209    1.54920009180665
H          -1.97801557627437   -1.08372930884943    0.62652676776187
H          -1.33370353964533   -1.05945554348577    2.02793732033417
H          -2.10576986292660    0.68430044328238    1.00192202575613
N           1.93536143571286   -0.07613687201068   -1.58769265449011
H           1.47792086628896    0.67691343979515   -0.98793526587670
H           2.90943515366085    0.11348545132539   -1.79353193410270
H           1.78177830419253   -0.96699848317652   -1.03714179620877
