    26
        -50.46954183  Gyration_radius:  2.39867308032 Dipole_moment: 4.982
 S          -0.26672194725188   -1.47617989924015   -0.52946341651112
O           0.41705273302432   -0.48224554218025   -1.38345135164294
O          -0.97061441741660   -0.79793766048474    0.56130898765668
O          -1.13217716042195   -2.32677321513902   -1.29899063040587
O           0.87645756609693   -2.32276710567342    0.11207193981849
O          -0.76578585433646    1.82174317159344    0.92609421014117
H           0.17404764868039    1.89899913650017    1.15335536340847
H          -0.93541508301339    0.85597351586977    0.94583844596519
O           2.83399352878908   -0.11457097286117   -0.44417173763424
H           3.11280888383248   -0.99865636102399   -0.19401632586803
H           1.97714951384873   -0.23891317007722   -0.91209694115761
O           1.92383381013109    1.34833408399884    1.55260977797953
H           2.62693320926187    1.86939659370939    1.94246387122095
H           2.31874198167357    0.87824976942980    0.77441133262875
O           0.92202048214905   -1.08364274346864    2.39202364756474
H           1.01094326637935   -1.95585366499954    1.02968118949308
H           1.34489775289519   -0.21332787177179    2.27145210771418
H          -0.00529870632185   -0.94750364905589    2.14006351891931
O          -3.09394685791224   -0.56446923929454   -1.32871582185998
H          -3.33826484990018   -0.60545458965661   -0.40011959947785
H          -2.18065637521692    0.76883034158761   -1.56333417817158
H          -2.45456104503603   -1.30560608091829   -1.44353642548576
N          -1.32820116596775    1.39384448633559   -1.60118074401054
H          -0.52436171731084    0.69962543648991   -1.68945563912243
H          -1.17876360091390    1.83603416642590   -0.65121719600332
H          -1.36411159577857    2.06287106379716   -2.36162439515126
