    26
        -50.46954185  Gyration_radius:  2.39865609749 Dipole_moment: 4.982
 S          -1.45078017060417    0.33464733539000   -0.56032556025628
O          -2.40003350982286   -0.58529506595934    0.26899458292483
O          -0.55549282115500   -0.58715525081126   -1.29071457496694
O          -2.22116285967386    1.14654100089060   -1.46140159747330
O          -0.67629444826742    1.13279732507924    0.39276518901305
O           1.16945554196931   -1.77305074375995    1.84854803477167
H           1.62163823744436   -2.45370887298672    2.34863155714864
H           0.64157698317134   -2.23875045888794    1.15071693791100
O          -0.42898564502920   -2.83860198567230    0.04149450160133
H          -1.33185536649721   -2.97207910545054    0.33967286076109
H          -0.47091835051686   -2.06394360383242   -0.56399992788893
O           1.91395325510846    0.70583147666496    0.77585514698106
H           0.97268344838942    0.98122866499585    0.77082136245960
H           1.89484872202316   -0.18563085905157    1.15775812267918
O          -0.25961778395215    2.87040742357052   -1.83023572320475
H          -1.06745337539472    2.30594921515515   -1.83215557426723
H          -0.25315632001023    3.27002326827910   -0.95621966291765
H           0.96252580061829    1.79043262230030   -1.91264141831994
O          -1.12096527466545   -0.38405382046839    2.51826048890013
H          -0.30405925127204   -0.91393724992446    2.46678547866953
H          -0.89199492002334    0.46750637505190    2.11287980738979
H          -2.02867246177425   -0.60361096038315    1.19440947248685
N           1.49162620705223    0.88054508820008   -1.80831728750541
H           0.71324350751632    0.15428891536846   -1.75627838486766
H           1.93666558855065    0.84494975723968   -0.84866927570301
H           2.14322527695797    0.71466949907482   -2.56663455641701
