    26
        -50.46954181  Gyration_radius:  2.39867749122 Dipole_moment: 4.981
 S          -0.48652798725237    1.40882362633312   -0.55658130134136
O          -1.05314625244724    2.11776849627734   -1.67054854679005
O          -1.33779018841933    0.30808813882045   -0.09926959129611
O           0.86753335282553    0.90373342679254   -0.86658636855285
O          -0.29678460106237    2.38017173990955    0.64997068878688
O           2.32390588195346    1.06793242723320    1.30421446709850
H           2.05848819533272    1.90730576106843    1.68750816566965
H           1.88237100238670    1.03659720406327    0.42527092798384
O          -0.36864911936800   -2.13440438555177    0.26540607448008
H          -0.87900725721928   -1.29936984517309    0.20068011122317
H           0.24612506520336   -1.97666798258815    0.99886550638965
O           1.13562138277401   -1.03718655518979    2.35928030392943
H           1.65673125376914   -1.39974480072745    3.07678910556669
H           1.66745308575634   -0.29687456270575    1.96997371945679
O          -1.83280465827997   -0.09319831051789   -2.87851528849812
H          -0.50646688152404   -0.99092496558824   -2.55976833700066
H          -2.52821241330049   -0.35248403293006   -2.26791711832337
H          -1.57638563377132    0.81123737162951   -2.58285085474301
O          -1.00481259108146    0.70178840412093    2.49863649105891
H          -0.54528371103843    1.86148894940795    1.46477408888836
H          -1.51409289719786    0.35710291958831    1.74776230094913
H          -0.28694663063123    0.05562453780867    2.63233750978683
N           0.39561042083996   -1.30118862370120   -2.10284023811069
H           0.77930043350716   -0.39686028369125   -1.68931448873916
H           1.03353043438552   -1.74603537610760   -2.75269864618201
H           0.17024029392057   -1.89272327859606   -1.25457868166221
