    26
        -50.46954183  Gyration_radius:  2.39869358502 Dipole_moment: 4.985
 S          -1.06280033499953   -1.18370373652897    0.04698083875720
O           0.34678618582870   -1.42237170932808    0.42249283358954
O          -1.96397929645287   -1.94289178923368    0.86928598380999
O          -1.35103299295688    0.25201427397524    0.07467113501626
O          -1.17741242423037   -1.65098045474157   -1.43745367252764
O           1.79717290901533   -1.38442445134981   -1.75788311610239
H           1.25009195445066   -1.84637103988373   -2.39758093410149
H           1.33023435135157   -1.48957983360571   -0.89794137130137
O           1.66010091824684    1.24544067472107   -1.90349541562036
H           1.81049707845117    0.26758903925294   -1.84288323185702
H           2.34348847910048    1.59166326157351   -2.47880813918466
O           0.55172829946952    2.04006437957187    0.54420163934172
H           1.11179111910508    1.91677969161251   -0.23807948599037
H          -0.25662218853333    1.52341503036530    0.34047088258246
O          -1.88218458691277   -0.19324605954581    2.84102794474309
H          -1.98969406114365   -0.95360216459337    2.22339491550952
H          -0.28325188777111    0.13277942739887    2.77352045407802
H          -2.35671591559879    0.52576055750947    2.41497578797276
O          -0.97902630759445    0.70503234275048   -2.50840943146358
H          -1.12157073355472   -0.82458532511982   -1.99288798935506
H          -1.36969613781186    0.93739531436469   -1.65096044160110
H          -0.05231778340666    1.00285902089092   -2.45075421573011
N           0.70328818103181    0.18704984903011    2.39608458464366
H           0.72216887110049   -0.58392744376629    1.66039244528004
H           1.40726953101645    0.07050478039760    3.11577832803994
H           0.81168675278632    1.07733638428274    1.83385965149657
