    26
        -50.45198896  Gyration_radius:  2.60450387733 Dipole_moment: 2.750
 S          -0.71084889858075    0.05962199074226   -0.01852066784009
O          -1.80175089161598    0.35984320094581    0.97268948779981
O          -0.84651993023172   -1.27337100808790   -0.56108869710568
O          -0.95125897938215    1.08302890149365   -1.13457179396264
O           0.58651874541797    0.29707648941488    0.58000984272188
O          -1.54909142115866   -3.17057990538290    1.16518516385373
H          -2.35140951188999   -3.56989115360371    0.82400471681154
H          -1.21775421911107   -2.57240791921999    0.46337281154109
O           2.23468322541864    0.41675393741706   -1.60409984717254
H           2.17360335566573    1.38537788682195   -1.74767743334666
H           1.84325747678774    0.27845879843326   -0.72669216287089
O           0.91960608319515   -0.58256991930805    3.07036360871473
H           0.93553552430116   -0.28778796782908    2.13659870480384
H           1.24144974754707    0.15435959219669    3.59255394715456
O           0.11257515466305   -0.28707937924913   -2.92681941122834
H           1.04184251657781   -0.10019094150364   -2.60267593418554
H          -0.14696655654911   -1.11973391339042   -2.51255031414617
H          -0.58730241934054    0.60392954577582   -1.98727095066016
O          -1.63141148692901   -1.17956378737511    2.87342156520190
H          -0.68620923228813   -1.03688883643292    3.13789629359929
H          -1.77874359850968   -0.31485001897210    1.87626557713984
H          -1.64741149710612   -2.04926298877292    2.39566912178621
N           1.37774611535410    3.01665897001255   -1.81709869181462
H           0.46256306869172    2.73518028419101   -1.48071210180866
H           1.26090154324877    3.39415520567598   -2.74904944485002
H           1.71639604581716    3.75973292601443   -1.21920340013764
