    26
        -50.45198911  Gyration_radius:  2.60472421361 Dipole_moment: 2.758
 S          -0.50857940245460    0.35611090251456    0.34634269656957
O          -1.47190288442007   -0.68653862552662    0.07320049789300
O           0.86105508183569   -0.07764237017728    0.16243809931082
O          -0.79050115158035    1.55306598405299   -0.56941970775264
O          -0.69254867155139    0.92131661111310    1.72821756239945
O          -1.99585665970548   -2.35464238271350    2.07753755481722
H          -1.82719673935317   -1.85048497802887    1.25440906816735
H          -2.93965907894441   -2.30205249952800    2.23859059177180
O           1.05368418551590   -0.30367884214289   -2.56019763755354
H           1.13833509944730   -0.40671646290338   -1.59874495848197
H           1.36542717706184    0.60993934651041   -2.73528036746092
O           1.94876167507332   -1.42950793767690    2.18103679325725
H           1.62939009429626   -1.01312767715948    1.35413068509824
H           2.78130894314150   -1.00443982065674    2.39443815186385
O          -1.49919340376564    0.17552871328457   -2.52401417829555
H          -1.15726008359375    1.11170943983056   -1.44131142005282
H          -0.56238355017227   -0.10101577702059   -2.74645273018212
H          -1.85348952118430   -0.52617277666674   -1.96324449406773
O          -0.30597582766488   -0.83698798218759    3.39254505827589
H          -0.94814381844298   -1.52308429458008    3.07318567823912
H           0.58980925429465   -1.15815292598060    3.11285157897134
H          -0.52574745331515    0.16115466562592    2.54448821143345
N           1.46282346309623    2.41146034635495   -2.52166882240552
H           0.82050330399329    2.48917138258780   -1.73976741915392
H           1.08455217405876    2.95575704863062   -3.28676632170847
H           2.34278780433473    2.82903091244275   -2.24654419095203
