    26
        -50.45198907  Gyration_radius:  2.60465747412 Dipole_moment: 2.758
 S           0.55575666488328   -0.42478923248636    0.12877609670562
O           2.05247945330149   -0.32109086628567    0.01919267866092
O           0.14144806347737   -0.60796742762345    1.50155344968667
O          -0.07156132809570    0.71752697919082   -0.50323416901010
O           0.22630415503622   -1.69207781473005   -0.66882847758732
O          -2.65923165557945   -0.12306856512509   -0.81676362980434
H          -2.55368634211824   -0.50591864673300   -1.71388927336056
H          -1.84593298252074    0.38767109465646   -0.67586092680591
O           1.02157850069498    3.09143481933176    0.00196535734695
H           1.18640333926480    3.51584795910123   -0.84186323989341
H           0.49566836810771    2.28795838899977   -0.19035669208437
O           1.46047541131806    0.81101554194368    3.32397724258244
H           1.83375084735294    0.18194391366380    3.94399980309938
H           0.86301954128125    0.30089439898033    2.73832349424355
O           2.83087807388105    1.65164402409853    1.24939159166243
H           2.43330097080132    1.46922442621541    2.14030665546546
H           2.47658720599022    0.57080102104431    0.56360678412473
H           2.26306868623947    2.35553257297462    0.84202799288040
O          -1.88679311164395   -2.18573370314908    0.56043408640197
H          -2.39615868717103   -1.45534623958515    0.10143181338298
H          -0.64200107317352   -2.04859637416067   -0.21216429872076
H          -1.55708750150183   -1.79919860731233    1.38157853540432
N          -1.72558399714191   -1.39819484754194   -3.06242070979663
H          -1.51942549240528   -0.90922579207464   -3.92429770753824
H          -2.13548549444977   -2.29249463113239   -3.30110678561486
H          -0.84777160582952   -1.57779239225969   -2.58577968143421
