    26
        -50.45198916  Gyration_radius:  2.60472263273 Dipole_moment: 2.745
 S          -0.01183218236086    0.11133254817484    0.70394843189080
O          -1.06678271859182    0.34853061726705    1.74972817182465
O           0.70134887202320   -1.12214158197910    0.94772748577013
O          -0.59797793191336    0.17361079764969   -0.61907620633031
O           0.94820686712777    1.29188253853645    0.89143241156512
O          -2.93391359728739   -1.06282746320113   -0.93539982518733
H          -2.04900973618630   -0.64361254297472   -0.95409446320115
H          -3.54142017701054   -0.43077404650059   -1.32380502185895
O           1.59889763512799    0.47561792831821   -2.22700184677494
H           0.73671818742505    0.24655467352417   -1.84441866069422
H           1.60881248340148    1.45667896986394   -2.23403616203773
O          -0.77321803287332   -3.18279429214767    1.75538990091905
H          -0.14926694324681   -2.51897714723042    1.39446913556028
H          -0.40422260512673   -3.47497681141543    2.59091107632570
O           2.94017660220410    0.10900572233640   -0.03265768514490
H           1.86816759110282    0.90958707725754    0.58092624249730
H           2.63507692789936   -0.75252657967247    0.27876116633616
H           2.62185465088516    0.18455005765855   -0.97942794189413
O          -2.73685876269112   -1.44413922105156    1.65637910363705
H          -1.87016046813417   -0.44312608476211    1.75889635392367
H          -2.98912014488385   -1.40631778845681    0.69789116371704
H          -2.14669589833450   -2.23691640592267    1.74650445921730
N           1.43616689726383    3.13365177202777   -1.55832621473427
H           1.11133792913839    2.87406029267419   -0.63255580050914
H           0.75703687420273    3.76550685598086   -1.96311341533893
H           2.30667767083993    3.63856010404737   -1.44905187947576
