    26
        -50.45198909  Gyration_radius:  2.60473251022 Dipole_moment: 2.758
 S           0.33146014203847   -0.00112887397798   -0.62878778225005
O           0.53579501188469    1.48922893825390   -0.92522280061294
O           1.53492841533424   -0.53467407983463   -0.03152781921250
O          -0.83766074420053   -0.16851993418898    0.20966549225436
O           0.08512067196383   -0.59796464357698   -1.98746667058413
O           1.96619470122864   -3.13563950272718   -0.38320422536458
H           2.81813086752894   -3.21628671917618   -0.81591166348975
H           1.87282526999936   -2.19377226213307   -0.12956073383712
O          -2.01238924077217   -2.55572431631843    0.12825357557951
H          -2.94371201836363   -2.41047046620192   -0.04762636785640
H          -1.62111102130296   -1.67339032446724    0.29429647116947
O          -0.38440586169479    1.62602931127655    2.22836457076197
H          -0.64979491351280    0.86516970805932    1.68722656051574
H          -0.84295531320862    2.38926810198073    1.81637233442345
O          -0.25755880131926   -3.01606694478407   -1.77208011854640
H          -0.08364260121695   -1.71268648810517   -1.95859480028612
H           0.57250909297078   -3.26705240013597   -1.28928477417568
H          -0.97943089713466   -3.03750168854657   -1.09218818092701
O           1.93281364967878    1.92804503345640    1.09370297103404
H           1.16935640320439    1.80556274262226   -0.15837489146423
H           1.14960396318309    1.89698349212489    1.71754265847860
H           2.30224866322006    1.03592057210612    1.09218236943866
N          -1.37545362074656    3.49240537911809    0.47469659864444
H          -2.36353272862388    3.58787172224152    0.27727040431131
H          -0.94946829029052    2.98471357632028   -0.29391187116202
H          -0.96987077984913    4.41968005661547    0.49416870315647
