    26
        -50.45538169  Gyration_radius:  2.56580985022 Dipole_moment: 4.096
 S           0.71752163777094   -0.72102508765936   -0.26397488136008
O           0.40297080875794    0.61866094569723    0.29148481811931
O           0.36403693408436   -1.76086625499014    0.67084845190980
O           0.07599743162099   -0.85654162865824   -1.56955422784165
O           2.24063718481105   -0.74020546608915   -0.51821164760869
O          -0.49622946256116    1.12260580855140   -3.13272099785717
H          -0.25816034023935    0.27962839633771   -2.66549413692510
H           0.31292220411493    1.44271144486987   -3.53571460977561
O          -2.14243445534670   -1.66095985942779   -0.36750608508473
H          -1.46732830359779   -1.51550502103969   -1.05445719274527
H          -1.60623276784248   -1.91855833498461    0.39434091993838
O          -3.31128042980741    0.67542037940277   -0.41000217445145
H          -3.93776803174836    0.61405419198170   -1.13397155155935
H          -2.93130265761902   -0.23937469868719   -0.29550100854646
O          -1.22570049088703    2.04095919118179   -0.87631822315200
H          -0.99591643501964    1.81631096766129   -1.84827470385395
H          -2.12200375182839    1.56876821192968   -0.66641083699382
H          -0.49698294787499    1.47174925067463   -0.32077464575467
O           2.81095161964481   -1.66719682142219    1.77992090578793
H           2.64056556712007   -0.84873416883599    2.30879755426488
H           1.94497518679072   -2.09667796591704    1.70811024529655
H           2.63929573270993   -1.10358051802936    0.33786971563582
N           1.86968982019117    0.64463504736951    2.78172710283616
H           2.43126800724769    1.48337672863567    2.85734830724808
H           1.24958587398042    0.61653668818682    3.58140046863472
H           1.29092207553893    0.73380858323518    1.94703843384484
