    26
        -50.45538137  Gyration_radius:  2.56572715101 Dipole_moment: 4.114
 S           0.17319001708255   -0.50361282646433   -0.90775257993111
O          -0.88825511701979    0.07146698213028   -1.69720630037768
O           1.39131038156690   -0.80548663600888   -1.80763548459445
O           0.64266716104807    0.45374144701712    0.12439222898391
O          -0.18761855399834   -1.76194995482485   -0.25918359573073
O           0.81277787922458   -2.60176321768050    1.97330788780379
H           0.41606192587044   -2.43229549528720    1.07927338640154
H           1.70561821982258   -2.91387864860700    1.81530071607109
O          -2.61068785307503   -0.80027564535381    0.20823797527963
H          -2.47141548045081   -0.17792295836594   -0.51833494134678
H          -1.87985311629468   -1.43137532665958    0.08061488784447
O          -2.11525915884006   -0.05452820514767    2.66202554137531
H          -2.38650645491853   -0.25181852858972    1.72268879138956
H          -2.52013628760665   -0.73471908533168    3.20404298103438
O           0.88897682274078    1.07014329285149   -3.44961817536284
H          -0.03299360935101    0.89948506136270   -3.20402347878742
H           1.16181942722392    1.83285317888740   -2.88180392959715
H           1.33817244373182   -0.11902368132189   -2.54907649735679
O           0.41333218890423   -0.14532092343668    2.49669942358905
H          -0.60682606067669   -0.06097902486223    2.64892554021813
H           0.62164322749291   -1.14641974103489    2.44984690001498
H           0.55026289909805    0.17509299333611    1.47598229302254
N           1.38572228889394    2.77447335042747   -1.42875147564000
H           1.12860717169085    2.03018004869074   -0.78103583056976
H           0.75193932622288    3.54805512435280   -1.27193243805532
H           2.31745029162836    3.08587840992191   -1.18498381570632
