    26
        -50.45538164  Gyration_radius:  2.56578319826 Dipole_moment: 4.092
 S          -0.22976182835782    0.41870149792479    0.93538279438395
O          -1.51033374249536   -0.28431537411723    0.91579239819424
O           0.77821171052932   -0.22677913806821    1.74007384803839
O           0.24309103739646    0.59910758415204   -0.45970064213835
O          -0.51329776380667    1.83381496150856    1.48523339235006
O          -0.21426992118982   -2.59259185023518    0.85207257835010
H           0.55218235768933   -2.14414981615759    1.23384890310206
H          -0.92242277234677   -1.93655481411837    0.98261358696212
O          -0.39047062102791   -2.90312373375654   -1.73594913226220
H          -1.09835165196773   -3.54054814413280   -1.85023728640717
H          -0.22221605612537   -2.85064199166061   -0.75437128132929
O          -3.18854525265148   -0.21128124633759   -1.05064357227591
H          -2.67207119444122   -0.25529093350034   -0.20395581271731
H          -3.62509201851104    0.64249206764884   -1.05378042173299
O          -0.98341695096149   -0.49921419889570   -2.28420034293871
H          -1.94285475667188   -0.39725103290335   -1.94213204929214
H          -0.40610508525201    0.01607803870832   -1.53287936112671
H          -0.72645899151041   -1.49342013089952   -2.15640128443958
O           1.82927973735197    2.15186729408865    2.42205057208225
H           2.30613860408918    2.29066371207202    1.56651403042002
H           0.35672513779240    2.12116775327140    1.91451224136727
H           1.80395486360787    1.18947429864028    2.53467089127433
N           2.69534269756275    2.09140268827566   -0.12381541887239
H           3.50766343269385    1.53186544839925   -0.35153681201358
H           2.70444096268789    2.90586215481415   -0.72474637494343
H           1.86863807596222    1.54266490532465   -0.35841544404477
