    26
        -50.45538158  Gyration_radius:  2.5657542247 Dipole_moment: 4.103
 S          -0.03753122351221    0.95764261806503    0.43180974002534
O          -1.49369019815168    0.93441943341400    0.31582644076979
O           0.61898906217211    1.70977366724942   -0.60913010340079
O           0.28432617737798    1.57751227473659    1.80908926329807
O           0.46559331167593   -0.43781027822026    0.47330190735011
O          -1.53987692741109   -1.85227869403656   -2.40333141725062
H          -1.36704191100013   -0.87241404156287   -2.47051941183070
H          -2.44500529259347   -1.98281157492025   -2.69319318632159
O          -1.25712774829243    0.74334826765495   -2.31507068007734
H          -1.63618053377253    0.91653603933040   -1.43468919270501
H          -0.37391784309667    1.12821358489190   -2.23609491604807
O          -2.99993563687707   -0.99277944494939    1.15565588651471
H          -2.54455944505489   -0.15948663502722    0.86609525143028
H          -3.05283840165956   -0.95026096135977    2.11217926322878
O          -1.10353685479959   -2.28290168317990    0.05740098542493
H          -1.27314317323922   -2.20392096769814   -0.96021070204086
H          -0.36557268674194   -1.52185927875777    0.25674233702017
H          -1.93818908907774   -1.91690600409538    0.52359392864451
O           2.55313509264152    2.47557732047110    1.09353066050819
H           1.19651475086609    1.99985590200373    1.69343884947868
H           3.04382745695342    1.61699917982497    1.06824542686172
H           2.13575722140503    2.54469603314357    0.22146299996342
N           3.31432044993057   -0.08889985675133    0.81354157719722
H           3.65455862845626   -0.65141551679689    1.58320356771437
H           3.82615481497939   -0.36120346550429   -0.01629834254279
H           2.33497001880450   -0.32962593791891    0.66341988676920
