    26
        -50.45538170  Gyration_radius:  2.5658020238 Dipole_moment: 4.096
 S           0.57980789190175    0.07515146415157   -0.87319660899181
O          -0.51101870753594    0.60816929945376   -0.01984115230822
O           0.16838491113168   -1.13872008505860   -1.53457727632578
O           0.88445301779684    1.16646921182271   -1.92250634102885
O           1.78705830579191   -0.07258206136709   -0.06378407189330
O          -0.06690468201886   -1.66738975793789    2.96677088984271
H           0.58405009395091   -1.92376674136240    3.62320279469248
H           0.24091583576385   -2.06168454877686    2.10409839004582
O           0.95293285166429   -2.46773242285195    0.69843624180405
H           1.53949437423834   -1.71309109069471    0.51061262478109
H           0.40036346392598   -2.49880924634598   -0.09405373670337
O           2.31934956288485    1.33085786466188    2.04216961848778
H           2.27134775971370    0.78677907478914    1.21313866608497
H           2.58017239046106    2.21222977330025    1.76875134621455
O          -0.76408862949811    0.25931594865775   -3.63283871709556
H           0.28630722501171    0.94234405658381   -2.70726485226796
H          -0.55285422327742   -0.59669113543239   -3.23017206421095
H          -1.60043246730498    0.54468693184899   -3.18818821661100
O          -0.14234368427078    0.80381117204761    2.40195586599181
H          -0.16783382748323   -0.18352287651282    2.71010902585792
H           0.84069824570187    1.08913697926858    2.41135952780564
H          -0.36604962269199    0.75198973353636    1.34795125528263
N          -2.70302602935485    0.89674196014253   -1.88124252738315
H          -3.10725446986166    1.82253782716784   -1.81727976960957
H          -2.01422100716109    0.80741219809798   -1.13478888915011
H          -3.43930858951918    0.22635646094434   -1.69882203332257
