    26
        -50.45538149  Gyration_radius:  2.56574888888 Dipole_moment: 4.109
 S           0.32972423794163   -0.46165954043251   -0.88572787513958
O           0.99295373302347   -1.48734154481664   -0.08420912880536
O          -0.32497125654292   -1.19077170112300   -2.07926585828135
O          -0.77993609562274    0.12593487969662   -0.09480649528504
O           1.21804114291105    0.56723232015913   -1.36804747020155
O          -0.14622350375959   -2.83484281280556    1.80674428051177
H          -0.73054830713119   -3.48622855033676    1.41456120550602
H           0.37852978928644   -2.44711738149060    1.05858603084093
O           2.51691362610082    0.38364361132010    1.00713221334657
H           2.19938589840740   -0.48818312838779    0.71077252020362
H           2.34052573333103    0.93797592817861    0.23506338914687
O           1.06623802361003    0.66255108027744    3.16160332023299
H           1.65324941231093    0.67045287351388    2.35537808296501
H           1.54948724134521    0.18291245573251    3.83744196283837
O          -0.22769744172308    0.83058916607128   -3.61904478393785
H           0.56434793064328    1.05368306305064   -3.10682182215359
H          -0.36100918099579   -0.49690672669089   -2.81481056187973
H          -0.95185381323599    1.36082192446035   -3.20305028451645
O          -1.01088727500365   -0.48921435130527    2.27323501416249
H          -0.21821528708921    0.01201003892136    2.71052680447933
H          -0.97132130179910   -0.18440364662099    1.23936494707451
H          -0.74538979738003   -1.47684048972529    2.22865683118696
N          -1.96473797444412    2.01015257595821   -1.93796381112831
H          -1.79892688004568    2.96713470939126   -1.65261714065779
H          -1.61137151980861    1.40333700642951   -1.19868433531782
H          -2.96630714432399    1.87507823058083   -1.99401705519940
