    26
        -50.45538159  Gyration_radius:  2.56582067536 Dipole_moment: 4.101
 S          -0.78115600376698    0.48899632800697    0.50564339892611
O           0.42802061739934    0.56993188698434   -0.35087133076630
O          -0.46211027635245   -0.27983849927773    1.70626215772505
O          -1.08094156431607    1.93010956316822    0.97279452793252
O          -1.90373562220554   -0.02827957455821   -0.23766943786995
O           1.46953387055529   -3.06232613633252   -0.21330864625583
H           0.49229271438786   -2.91340624416347   -0.08158961918114
H           1.72051627408455   -3.74626969685942    0.41090085289301
O          -1.01163396858913   -2.51298750739275    0.39298502877982
H          -1.55165972835758   -1.99093937992532   -0.21550351309180
H          -0.86341995816168   -1.88735165908889    1.12471433496008
O           1.90338616985345   -0.47954026647864    2.73262757456030
H           2.12084173901990    0.34433155578309    3.17252957239205
H           0.94351599580673   -0.41759832468888    2.48707930492806
O           2.40805424875844   -0.75352502352155    0.25518737360431
H           1.57795955678411   -0.14188425774748   -0.06176808033891
H           2.37135612797720   -0.67457456297326    1.27511528524149
H           2.11066286940346   -1.71652471517886    0.02095888556025
O          -2.61823564526699    2.45356194551042   -0.98398457342085
H          -2.81442663661749    1.50492762156091   -0.95044845782513
H          -1.71230060772642    2.30004299950287    0.27396355661451
H          -1.92780274717769    2.54115463429269   -1.68704730550769
N          -0.45096516669412    2.21442461231999   -2.55886948796563
H          -0.52381702548278    1.68143457605101   -3.41643997729359
H          -0.04373575591902    1.60377899833056   -1.85111675738689
H           0.19980051259183    2.97235110666303   -2.72214464718731
