    26
        -50.45538139  Gyration_radius:  2.56574336587 Dipole_moment: 4.113
 S           0.92368412602392    0.31316987197484   -0.39466098451811
O           1.20388245389507   -0.81521069273982   -1.24839260753829
O           0.11913770091982   -0.10079631936442    0.78160814822860
O           2.24361181965870    0.88987021330300    0.16196110932492
O           0.24193090861010    1.41280979768955   -1.07306848345137
O          -1.18492197338932   -0.34720699883186   -2.44467531233459
H          -0.49075337279539   -0.99805282342601   -2.27383105398618
H          -0.75177956439029    0.48670415192862   -2.18842580524880
O          -1.37576093840658    3.06981748758578    0.07913689637449
H          -0.71901468873094    2.55457310386379   -0.45808262523949
H          -0.86486804191959    3.68448204249989    0.60896986311520
O          -3.27513856059047   -0.24724850543961   -0.88150438871675
H          -2.51108384711700   -0.39736761911889   -1.50482557276031
H          -3.90183558282348    0.30208208333314   -1.35671984838109
O           3.46954277106496   -1.33716330264745    0.10115991403606
H           2.88785707681206   -1.51999128080995   -0.65228301673309
H           2.87278250211751    0.09836764850301    0.20032935479266
H           3.02231079609101   -1.76633945158618    0.87212124786115
O          -2.12269107021844    0.85808410632874    1.08813553833320
H          -1.14582314801935    0.40635757408739    1.01715185771657
H          -1.95319633594495    1.81570966962994    0.76885151539822
H          -2.66818816565897    0.38914696199738    0.34413627896731
N           1.73535179149315   -2.17581837745889    1.97845211412864
H           1.07237418793283   -1.48478520025643    1.62838241932087
H           1.86549977256497   -2.00359045242986    2.96734885680259
H           1.30708937279542   -3.08760365859079    1.87872456445489
