    26
        -50.46212484  Gyration_radius:  2.51234566788 Dipole_moment: 6.139
 S           0.94289859142590   -0.78080283922860    0.39413126136852
O          -0.19026237876705   -0.37681568921837    1.25472099967033
O           0.76093220652372   -2.10717301781894   -0.12695660291971
O           1.12422936499727    0.22692521272320   -0.65592817079057
O           2.20317897225109   -0.77443330987841    1.28943545653095
O           2.62956981523253    2.35744526846763   -0.40455504805190
H           2.18302055631516    3.04149812442746   -0.90581779701960
H           2.14449419719253    1.52122665076668   -0.59492646891425
O          -2.31074266410217   -1.94419101518950    0.76990300480144
H          -2.26925062237516   -2.83768650949414    1.11395758721995
H          -1.46715385910696   -1.52038579941056    1.03394601227571
O          -0.95159258990265    0.41998541837771   -2.25751338075033
H          -1.71653920286187    0.73766363023822   -1.04616908676187
H          -0.05978475939129    0.42064402249245   -1.84160781604189
O          -1.30402714702808   -2.14264145245227   -1.82137706002212
H          -1.93756783627903   -2.19114977544708   -1.08893382148102
H          -1.14953166733594   -0.54689187846746   -2.35451160944637
H          -0.44054096554949   -2.27202083725184   -1.38116667392207
O           2.41544309962696    1.68505684098910    2.15336604083972
H           3.27668385099887    1.73843026475730    2.57347831767117
H           2.52059928411378    2.08610340396326    1.25977956491244
H           2.22030723544687    0.13661621159906    1.67778226514262
N          -2.10165183714952    0.80301361828037   -0.00916306095128
H          -1.27623486271793    0.46074596211172    0.58793262317969
H          -2.84827628439859    0.12251986134261    0.12800247884971
H          -2.39820046716741    1.73631761331995    0.25219097460623
