    26
        -50.46212478  Gyration_radius:  2.51225633877 Dipole_moment: 6.140
 S          -1.02304907795124   -0.71028620931787    0.32299467249395
O          -0.95138268181372    0.73746422542280    0.54636415738007
O          -1.79103366548412   -1.06105652525907   -0.83933597830064
O           0.35152119571684   -1.25149556125050    0.24763962723104
O          -1.68560821445336   -1.35566632871175    1.56168142219649
O          -0.83364386980133    1.85542647159077    2.91382203699379
H          -0.28001755596617    2.62935116330791    2.79935955881578
H          -0.99078905622726    1.49811585621472    2.00914851674697
O           0.94334408539267   -1.89417615936926   -2.28686488229742
H           0.53164481382546   -2.68701540656271   -2.63381250679652
H           0.62081721621716   -1.81128879798309   -1.36484452082175
O           0.21117131383293    2.02034043930710   -1.43184810926154
H          -0.33210446862689    1.73891410585443   -0.66112365045690
H           1.37283221405468    1.16759875384582   -1.15572412262525
O          -0.79446596661495    0.16712041163684   -2.99237201499771
H          -0.20505748045997    1.52991592349074   -2.18661367150418
H          -0.09449740972652   -0.49823764939593   -3.07962633890844
H          -1.38011085903755   -0.21083132204249   -2.30657149229124
O          -0.19889125073951   -0.63142668191445    3.58803111293595
H          -0.68880366322643   -0.88701845282932    4.37273563939609
H          -1.06538591770399   -1.14698285059206    2.30526543816076
H          -0.35118502974497    0.33483368037078    3.47186039879843
N           2.04698925674480    0.33567987493295   -0.87009871432805
H           2.28690138887385   -0.21576091076139   -1.69330800776834
H           1.42450843439934   -0.29528211556770   -0.26249701079068
H           2.87629623852147    0.64176407558416   -0.37426157000306
