    26
        -50.46212476  Gyration_radius:  2.51216373696 Dipole_moment: 6.137
 S          -1.12495368194810   -0.62151962553581    0.05845887410914
O           0.15295613943325   -1.28384968438599   -0.28226881352164
O          -1.91368306628362   -0.36486843766079   -1.11453547867134
O          -1.90247498067062   -1.60058591241146    0.96780356014123
O          -0.83927386367342    0.59092393799406    0.83279986957284
O          -0.60086261188408    0.64383332451460    3.44207012689348
H          -0.79205046434929    0.70314024396578    2.47730354079965
H           0.06453857688771    1.31005007691154    3.62072097447975
O           0.69103569805931   -0.94597031145846   -2.88678838857316
H           0.36646476223021   -1.18996678720856   -1.99453845777570
H           0.17094177693529   -1.46545425761208   -3.50166919988253
O           0.54313546391600    2.36929877818580   -0.52289004252045
H          -0.05180728652269    1.88785305455062    0.09562307926572
H           1.55617701771867    1.31596270557360   -0.65616351531064
O          -0.69973195581312    1.45716945758380   -2.64542848002148
H           0.07261310747572    2.28606074154814   -1.39184627407805
H          -0.10715493804735    0.78625128515960   -3.01820492063768
H          -1.34939565784029    0.92821904520539   -2.14115156920817
O          -0.36290790094677   -1.96953664036967    3.04979294925286
H          -0.90149484800578   -2.44112508473563    3.68902038797728
H          -1.27242711806639   -1.79850013640067    1.70597075542039
H          -0.36473971961683   -1.02579578244877    3.33217889675794
N           2.09045735586206    0.34990633652434   -0.75197164689267
H           1.36801872582436   -0.37188449399147   -0.41728946281353
H           2.94682731823502    0.30818450221357   -0.21141927693354
H           2.25979217108495    0.14220366428058   -1.73557750783252
