    26
        -50.46212458  Gyration_radius:  2.5117842808 Dipole_moment: 6.145
 S          -1.06674495420307   -0.10454263618427   -0.71402975638807
O          -2.24055564357425    0.13532912539832    0.07875571119426
O          -0.29459388780877   -1.26472800560592   -0.25704090479484
O          -1.50525731366533   -0.36323429186978   -2.17365785951912
O          -0.18019023285909    1.07921168009472   -0.74149413895702
O           0.60362849000447   -0.99257266544154    2.19875333992678
H           0.27400964627205   -1.31754460200401    1.33043402811207
H           1.28885295404729    0.20346689257607    1.69611370965680
O           1.07110741463147   -2.83706488471829   -1.84789596205923
H           0.48686426134433   -2.35069930122541   -1.22105220879587
H           1.83861348658587   -3.10422499418465   -1.33988484226541
O          -0.78746383254724    2.72690735122334    1.28374712844917
H          -0.72241587416817    2.18747987911568    0.46771780753451
H          -1.59387627798007    3.23665151476417    1.19242569759672
O           0.71618009553691   -0.78223421994470   -3.48887757954329
H           0.98056153796823   -1.57706249253759   -2.97051783855794
H           0.44906154114545   -1.10314913572293   -4.35302108678979
H          -0.65321947338041   -0.43257811322320   -2.67403045251073
O          -1.55969162552145    0.42199110508522    2.64618017850167
H          -1.99533529135754    0.17657037688288    1.80591249781940
H          -0.20519769728806   -0.58684456808564    2.60458198212264
H          -1.29584770416517    1.34355839915909    2.49985953827738
N           1.57833087810755    1.11882417231871    1.14256382376598
H           2.56776257955272    1.16319427233387    0.92729344051137
H           1.27056239870794    1.94596383461470    1.65280602416982
H           0.97485451461641    1.07733128717875    0.25435775254558
