    26
        -50.46212485  Gyration_radius:  2.51239988407 Dipole_moment: 6.135
 S          -0.52339003696707    0.14829072250816   -1.16521122241575
O          -0.41973660188023   -1.06280357419617   -1.93105903937889
O          -1.27429144063796    1.20131114856851   -2.01213498726726
O          -1.32153045525524   -0.05456340870828    0.06351329519795
O           0.78196355114754    0.70613498953932   -0.79653327611138
O           2.19811776580083   -0.91553146549503    0.71202039530057
H           1.87324653331685   -0.23190598573757    0.08316366911791
H           1.07017608943189   -0.85081443055202    1.64848793427187
O          -1.47753032148967   -2.67044472009842    0.62961816518807
H          -1.54032877438901   -1.75423478709995    0.28668078286710
H          -2.05775092789190   -3.19388951560274    0.07482461144457
O           1.27309538216857    3.27018104696113   -0.56724456061732
H           1.17635796131125    2.30671525981745   -0.74945492989307
H           1.91284297423494    3.34163409094703    0.14281612741652
O          -1.37882390594349    3.33971714927203   -0.50980272923180
H          -1.69443680041823    4.04236399266040   -1.08232228235033
H          -1.38303197209420    1.97237932299897   -1.40001258487763
H          -0.40243640454642    3.45435181256606   -0.44720771467603
O           1.02166138101723   -2.86682563709452   -0.58789346715414
H           0.63406403940560   -2.28840630726790   -1.27445325467619
H           1.99886311200590   -1.76383258675406    0.23867142628402
H           0.25713114095762   -3.11016067627974   -0.04334980871608
N           0.06737853024481   -0.77108333736999    2.11325133009256
H          -0.53358632562004   -0.32752418011140    1.34072537518215
H           0.06038434291334   -0.21933626732136    2.96344810302438
H          -0.31840886682264   -1.70172264614463    2.26945864198590
