    26
        -50.46212476  Gyration_radius:  2.51223775855 Dipole_moment: 6.145
 S          -1.16091124727469   -0.17414213589005    0.52724362490908
O          -2.20187193605270    0.10620161864149   -0.42234372120078
O          -0.29446866300463   -1.28367985359030    0.11581299048971
O          -0.32338010076615    1.01850401769086    0.78041177738885
O          -1.81581237627520   -0.54986196658581    1.87622054675575
O           0.84181279488299   -2.95847317195763    1.78092732506701
H           1.68852093637820   -3.17071637631851    1.38503304599205
H           0.35161039970769   -2.43262691654716    1.10716486179553
O           0.97065486886594   -0.80959648578235   -2.13920120894529
H           0.51824636589880   -1.20479054507137   -1.35976490973857
H           1.53407285135388    0.35674087760625   -1.44979547269608
O          -0.65324216687640    2.80367258730008   -1.19213721645614
H          -0.70155239521173    2.20528131506127   -0.41712338644897
H          -1.47904310729866    3.28998560784412   -1.19438291177986
O          -1.13612492485294    0.59589850835722   -2.82271695211843
H          -1.69068942229184    0.28076526351074   -2.08158332818295
H          -0.92472053536036    1.50820328565773   -2.57118681084169
H           0.22413422429597   -0.38870925701618   -2.63826770223654
O           0.18210540621099   -1.04019065719850    3.49144300518950
H          -1.05113158604190   -0.64665579888011    2.49826483858059
H          -0.20856346205205   -1.42903736217723    4.27708383953952
H           0.54342539050534   -1.78996298008637    2.96449349115238
N           1.70682332604301    1.23238145521053   -0.79292830275772
H           0.97334921318257    1.11267968137495   -0.01659844516912
H           1.45791461405718    2.09018626266371   -1.28440024568419
H           2.64884151197618    1.27794301618275   -0.42166872260059
