    26
        -50.46212435  Gyration_radius:  2.51118708781 Dipole_moment: 6.149
 S          -1.01746245868267   -0.56917568605124   -0.54877406030596
O          -0.10088072675611   -1.25589752549989    0.38743402386189
O          -0.30937912881218    0.55751427910794   -1.16542163572221
O          -1.36020360714463   -1.58825813921407   -1.65967136990718
O          -2.23682622894980   -0.17677197083799    0.10177568228494
O          -0.81030423169674   -0.72230565337350    2.91687271656604
H          -0.70068486556316   -1.02624566427258    1.99133813154209
H          -1.59714773400688   -1.16269878715928    3.24143956607471
O           1.13530454424410    0.36226033289819   -3.34309553339504
H           0.51731795085932    0.51774455968628   -2.59152431182277
H           1.85956869356387    0.97794829660966   -3.22129343887768
O           0.42280268152731    2.37974418431633    0.58230680397314
H           1.17096325403212    1.29902584963915    1.23325260057750
H           0.14653467985456    1.87426021748707   -0.21556564503199
O           0.93841921177399   -2.21386428906022   -2.73873327770786
H           1.14913644124058   -1.30010690754530   -3.04040612919771
H          -0.47723194630039   -1.88170612513892   -1.99942748016299
H           0.72750179221396   -2.71466861980795   -3.52973946428934
O          -1.73118565182947    1.71220626095295    1.92189542699069
H          -1.43513282410582    1.04893030384531    2.56436164679914
H          -0.40230561379962    2.39272972521166    1.13248092399661
H          -2.11313796736619    1.17253046052872    1.20152962724013
N           1.52111292291353    0.32181630713873    1.62191338970952
H           2.52417088678417    0.19537206548742    1.54921282411531
H           0.98137719520546   -0.39265908459407    1.02787913196950
H           1.19767275078938    0.19227562963766    2.57995987071064
