    26
        -50.46212434  Gyration_radius:  2.51102948812 Dipole_moment: 6.150
 S          -1.13097343314108   -0.59501638194926   -0.16955599134250
O          -1.01458496027830    0.85564690039052    0.01267151756703
O           0.15327273687958   -1.11709338749746   -0.68562261951424
O          -1.53416421238594   -1.27985939804436    1.02734359219920
O          -2.18845872521120   -0.85900429985513   -1.26593206850330
O           1.43294816996386   -2.46582518698930    1.24572487142985
H           1.08281627605962   -3.33007504681765    1.46689227626198
H           0.85353475401718   -2.12058758536072    0.53434513215682
O          -1.51004339373834    2.61147674307870   -1.86843747091019
H          -1.42097591171288    2.00645375174080   -1.09579635146818
H          -0.88547882787658    3.32305628455127   -1.71979259791851
O           0.79398360440184    1.51785913373644    1.80241333386565
H           1.74385096432806    0.79800438114282    0.94678130011415
H           0.02097655071985    1.46775641003017    1.19558971674487
O          -1.32006869513463    0.43132364053799   -3.36854867452754
H          -1.34798892525713    1.32132100694704   -2.94740686226610
H          -1.80491241700433   -0.43977105476006   -2.07720641671336
H          -2.04024413203660    0.41251682223590   -4.00250916463014
O           0.16536956544326   -0.72292898784056    3.01223184231634
H           0.58903553932747    0.82267179484167    2.47945356577336
H          -0.62981490457164   -0.89101220979096    2.46862363922459
H           0.80230112143497   -1.37593115499169    2.68324414316122
N           2.23025635773124    0.09481314294458    0.24172530773176
H           1.40398096514168   -0.33859015484938   -0.29159112949612
H           2.66381944019682   -0.67032486449735    0.75735904561627
H           2.89156249270029    0.54311971105973   -0.38199993687575
