    26
        -50.46212442  Gyration_radius:  2.5112708891 Dipole_moment: 6.145
 S          -0.56435730769512    1.09248600745011   -0.38303546419754
O           0.17490213352834    2.23693455719314    0.07298080993104
O          -1.76391209497455    1.58665626139422   -1.22385730502047
O           0.25339846142180    0.23894013068147   -1.27237212110493
O          -1.08419837807098    0.27199922405725    0.71593727694107
O          -3.32783055480625   -1.07689237404429    0.59948172966509
H          -2.53888468553093   -0.50354358064014    0.74027311157560
H          -3.16914671765283   -1.87368608234822    1.10790411051512
O           2.85206102737853    0.81039463745197   -0.94399202482550
H           3.15866409112287    1.63601383547574   -1.32186919259030
H           1.89562853654952    0.76345868445253   -1.15380262588416
O           0.81795666254198   -0.72242893644360    2.23432351092550
H          -0.01783039928050   -0.36543303692191    1.85703931862004
H           1.31765079266690   -1.35256763987485    1.00735885605635
O           2.16420123374018    1.45875656060902    1.67738492945927
H           2.71933338601144    1.22683792006276    0.91690056090508
H           1.40614852874706    1.92219448959002    1.26910450050359
H           1.39941830687766    0.07958049420989    2.28209545208675
O          -2.99960258634472   -0.58797748000057   -1.98764443284594
H          -2.17012208001721    0.75558134916507   -1.57802567018378
H          -3.20876175369396   -0.89864152213939   -1.07655889516281
H          -3.83078029304103   -0.29585145589088   -2.36817006521720
N           1.58418987047198   -1.59318471280489   -0.04115697682916
H           2.53475631708474   -1.28213117208889   -0.23852019188705
H           0.93866679359359   -0.95597611608625   -0.61740491194340
H           1.45845071936961   -2.57152002250918   -0.27437430949680
