    26
        -50.46212478  Gyration_radius:  2.51219093465 Dipole_moment: 6.134
 S          -0.79221468050901    0.13952019996271   -1.00447233811160
O          -2.16213245732311   -0.02361354017918   -0.60367771554573
O          -0.13277559734818    1.27019899727501   -0.34279829174192
O          -0.00487932857580   -1.08731719126310   -0.75351403149116
O          -0.75362320417601    0.38586123906659   -2.53026998749592
O           1.72805962440475    2.74164860225046   -1.45674665509231
H           0.95778741106164    2.29714155023458   -1.03262348996902
H           2.31889221534174    2.98464856640435   -0.74233776440913
O          -1.28771289086830   -2.65396504756596    1.00354432176459
H          -0.94939858425712   -2.13783538766686    0.24183022376074
H          -2.05609847184951   -3.12378920931569    0.67600778193599
O          -0.03272559009689    1.00994155049471    2.27111275052095
H           0.70390167223332   -0.23170651857822    2.00885414232478
H          -0.06605343250437    1.33026398199610    1.34121881239199
O          -2.30598066525866   -0.28075936446780    2.05159954967055
H          -2.45282888658561   -0.03403362498555    1.11694257496822
H          -2.06257717288565   -1.21791823572462    1.99955723730515
H          -0.94779716529891    0.65616985720065    2.41575996653754
O           1.78019094033332    0.66939067694339   -3.11348107696090
H           1.91606840718267    1.46220996933350   -2.54498808707232
H           0.21221894073219    0.40321361627699   -2.74925353135959
H           1.80371272108698    0.98331986577453   -4.02013101791203
N           1.09492222408757   -1.17390820434658    1.57591723597684
H           0.59964233293940   -1.97127159435075    1.97374127581002
H           2.09874492488075   -1.27554488030304    1.67227326370909
H           0.79265671325888   -1.12186585445593    0.54593483048085
