    26
        -50.46814365  Gyration_radius:  2.48726456918 Dipole_moment: 4.356
 S          -1.36585430789422    0.23387048266782    0.09402790410096
O          -0.22590408405698    1.13323088242210    0.38711973452793
O          -2.11807459599789    0.82827053557968   -1.10519985910042
O          -0.84024557392327   -1.08400135927129   -0.28561554854235
O          -2.27342205482791    0.14866940960487    1.20943911889236
O           1.48468174810162   -2.20226399900998    0.38263312380159
H           0.54648667594685   -2.00135743910168    0.17938502969262
H           1.94906921555852   -2.02688841505507   -0.44210398295592
O           0.82931646818757    3.01303352809126   -1.16646422079366
H           0.31464097488029    3.81085011741087   -1.03371817530275
H           0.49615035771634    2.36200768612540   -0.51442223259728
O           0.75748019957241   -1.15858804701053   -2.35078093488287
H           0.40436358615668   -1.78943455286209   -2.98049179894000
H           0.11586454749505   -1.13515040988056   -1.59920438971236
O          -0.32449486307810    1.27145364720156   -2.86496363021312
H          -1.44321790713777    1.00772477857988   -1.84440149228284
H           0.20161065754868    1.97979414293868   -2.43879680662548
H           0.22950445819934    0.46690208355585   -2.82907027584717
O          -1.13154153099024   -1.08519885152220    3.18634463490798
H          -1.36961955671708   -2.00531919442694    3.05627394093024
H           0.33094139076136   -0.60780431954710    2.70636721540768
H          -1.66586597997548   -0.57847628596582    2.52060895085746
N           1.12053051584520   -0.23041022592184    2.11088797396951
H           1.83090439062449    0.23474829565861    2.66495175700715
H           0.64285684993928    0.43736870837649    1.42193860623414
H           1.50383840806731   -1.02303121864096    1.53525534746718
