    26
        -50.46815411  Gyration_radius:  2.47642889698 Dipole_moment: 5.905
 S           0.85923026030533    0.04888193004746    0.73779888942417
O           1.91710594447559   -0.00980978850751    1.85999016354123
O          -0.42519480497811    0.41105125083411    1.32216601216854
O           1.30922215257340    1.08679153301788   -0.19946374318589
O           0.81012298872563   -1.24655043500144    0.07269976339163
O           0.99643346042700    0.75349908022151   -2.83166437108719
H           1.70191925749375    0.30597013170612   -3.30075477739861
H           1.26916113746884    0.78123929331358   -1.88996232341036
O           0.17609626277670   -3.11113482079271    1.84193948446624
H           0.83916878055163   -3.80055476541688    1.78024309033415
H           0.36471730510853   -2.48404082601354    1.11094567906266
O          -2.34663272277224    0.79179457347965   -0.43954421751449
H          -1.82962920943585    0.60862617342636    0.37637489965320
H          -1.49178852891777    1.85192994255390   -0.94558648685382
O           0.24286594119170   -1.01583620832038    3.50615476638472
H          -0.40191095288461   -0.46896261511242    3.03293735448360
H           0.14863402886762   -1.91208859488814    3.11932034795275
H           1.40614012479812   -0.40570462357371    2.62844184041454
O          -1.00226925720905   -0.94654043739643   -1.88218330226130
H          -2.09355216174724    0.04686924074514   -1.04142604853188
H          -0.44393570335903   -0.42623231532464   -2.48017987614031
H          -0.39652975965469   -1.23318808733256   -1.17202283431772
N          -0.62549094194095    2.48829502550033   -1.24507522620560
H          -0.41224239764305    2.34784270350817   -2.23267635970162
H           0.18683162791660    2.06845276273507   -0.70151692970735
H          -0.75847282213709    3.46939987659373   -1.02695579496039
