    26
        -50.46815426  Gyration_radius:  2.47588972514 Dipole_moment: 5.891
 S           0.54220539425482   -0.00055653203320    0.99698991672124
O          -0.83198945670703   -0.46239130319815    1.14322040267804
O           1.25281310701111   -0.72526638507835   -0.04816586436135
O           0.56929292735496    1.44402406911910    0.73130588423165
O           1.28013675662485   -0.20910703339500    2.33634304208028
O          -0.82181511741870   -3.02793600496412    1.79713470847638
H          -0.92258423672288   -2.09532953450719    1.50867813809152
H          -1.36536845048335   -3.12559280305316    2.58053482703235
O           0.29711587899793   -0.33981145318406   -2.47281606293817
H           0.63874343689846    1.05288529817408   -2.24095863184292
H           0.74528389106283   -0.70069556073618   -1.67569735793356
O          -1.55491775075719    2.65264265069951   -0.34795157430964
H          -2.22352468883264    2.97827466921041    0.25623044542567
H          -0.86284502744145    2.23709115836458    0.20911566285020
O          -1.98569393192837    0.03896947086172   -1.22566952183306
H          -0.65973218674089   -0.34076162646705   -2.21635541535307
H          -1.68765231173206   -0.28286051551114   -0.35327864072834
H          -2.07480777360762    0.99762321358431   -1.11139110310872
O           1.82586422708622   -2.63693608130093    1.75971138845876
H           0.92998850774182   -3.02946685937872    1.83162922816117
H           1.88250625268302   -2.30579537275298    0.85090566036760
H           1.57740686455326   -1.16675777104911    2.28135642068461
N           0.83692475072583    2.05425935225912   -1.79001699143890
H           0.02020257094610    2.65556896959664   -1.89929222178857
H           1.67607594982321    2.49371511455928   -2.15129941427903
H           0.91637041661000    1.84421086018255   -0.75026293534721
