    26
        -50.46815425  Gyration_radius:  2.47593864736 Dipole_moment: 5.892
 S          -0.17265107911091    0.09915389680346    1.11694556686716
O          -0.31680139147291   -1.28377196683067    0.68125763829095
O          -1.30754660688191    0.90371269632790    0.64469242243480
O          -0.22345137204561    0.14071531264576    2.65880613374039
O           1.08623197151430    0.68254734875015    0.67278284839165
O          -2.70434795089228    0.13084778246794   -1.49766150236481
H          -2.30594069228853    0.30217593931380   -0.61800461180233
H          -3.44318277829870   -0.45989920561102   -1.34538490291983
O           1.65154462510354   -2.72681194357904    1.70690173841649
H           1.25459357304143   -3.47976055939344    2.14766280862223
H           0.92021890132176   -2.26334593029262    1.24477104302749
O           1.30470926826191    0.91856782545524   -1.94175566622387
H           1.48127901257593    0.83730821627299   -0.97797690146783
H           0.14370274242398    1.78363901129823   -1.82704278321386
O           2.26957483049972   -0.38393064055551    2.84391532755417
H           0.72572817090303   -0.05836651165351    2.91946781850007
H           2.26256071142995   -1.32159360540979    2.55651025892254
H           2.33842502986490    0.12906318197925    2.02490743137054
O          -0.28797035938665   -1.17170100207773   -1.99849024291574
H          -1.18579359573468   -0.82311247879060   -2.11015891360570
H           0.87193163916041    0.05655767660203   -2.16775173948378
H          -0.22561762915895   -1.38150163621033   -1.04687830264528
N          -0.81253719520456    2.27063276195744   -1.52041419861658
H          -0.98529390003329    1.88063168816383   -0.54596135062953
H          -1.57936104623196    1.93515213946131   -2.10347770765445
H          -0.76000489935736    3.28309000290870   -1.51766221259738
