    26
        -50.46060874  Gyration_radius:  2.58745884819 Dipole_moment: 5.777
 S          -0.53773873944440    0.29893390459935    0.32489978698322
O          -0.83378096742357   -1.21920220775916    0.49389946919668
O          -1.66640722789728    0.83182949744505   -0.46415493956543
O          -0.44218920743726    0.90741973606221    1.63344254295898
O           0.68529861076333    0.41911795713338   -0.46030564536756
O           2.15518192755394   -1.51166947064384    3.10007295771337
H           2.61891079320875   -1.39065994043900    3.92995924966120
H           2.29651687380643   -0.68356402067522    2.58250693396890
O          -1.76970458678340   -1.28714304337167   -2.13055336054398
H          -1.89500568090205   -0.56076170276003   -1.49138947719142
H          -1.63621230217451   -2.06691593553651   -1.58613194972294
O           2.21086600613765    0.79005033197789    1.74897456379586
H           2.18984900576856    0.60592418842387    0.80073469361737
H           1.28560255496230    1.03727150959198    1.92888581420276
O           0.48700158674879   -0.16354340316518   -3.00656075676044
H          -0.23849998903938    1.12647779092719   -2.96072367025009
H           0.80644010110265   -0.07655170644846   -2.07863384229626
H          -0.27473668829504   -0.77939335569523   -2.92843510438892
O          -0.52086506604116   -1.39196608326118    3.00565737966872
H           0.43907952260693   -1.58689649903749    3.11019955613091
H          -0.59075319620094   -0.42499155670253    2.98134961873372
H          -0.74991017369145   -1.42697405780484    1.48120375535694
N          -0.86005833029416    1.97626959348754   -2.61931235301620
H          -1.61931527079870    2.17691801691586   -3.26226299947584
H          -0.29104018523378    2.79984322773932   -2.45405468637653
H          -1.24852937099526    1.60017721900236   -1.67926752703308
