    26
        -50.46060883  Gyration_radius:  2.58726798128 Dipole_moment: 5.775
 S          -0.66629683447553    0.12326027084558   -0.16158479350973
O          -0.52786040694151   -1.40420173537861   -0.42337864329519
O          -1.00489864995556    0.71522242357380   -1.47129379439820
O          -1.70038037475547    0.33868509964748    0.82619032684921
O           0.64265272749914    0.61410037475126    0.25381436131203
O          -0.02273655210917    0.52845075838516    2.87944196919567
H          -0.82346571817578    0.59530211920062    2.32815331343732
H           0.68143861136645    0.62154040407330    2.22441606502479
O           0.72159066215725   -0.83387471872091   -2.84860813110176
H           0.65762495832699   -1.71406226921845   -2.46985467431585
H          -0.02223918855072   -0.34228516820839   -2.45249292955745
O          -0.31941970771812   -2.05198757092858    3.49551911728209
H          -0.11205168179530   -1.09924249065220    3.34431065547376
H          -0.63404776443753   -2.11700059479890    4.39840618442812
O           2.46927457881254    0.76410029913983   -1.61787104340768
H           2.00136996314904    0.62098906133879   -0.76275754125652
H           2.10178893141986    0.06199322796594   -2.19888726508901
H           1.58402357971671    1.88657043054753   -2.00446206810298
O          -2.02859307652397   -2.24792712047099    1.44012159779384
H          -1.10163414983109   -1.87361959530610    0.26610641869210
H          -1.41964285693295   -2.34222695091567    2.20869381092522
H          -2.34402428185509   -1.33123571778749    1.46677470849304
N           0.68975201744250    2.51898946905545   -2.16329406713538
H           0.58730319604553    2.79894350040729   -3.13347014928377
H           0.70019077623133    3.32501843343932   -1.54721543652211
H          -0.10971873810600    1.84449804001849   -1.87677801192215
