    26
        -50.45499948  Gyration_radius:  2.50018007965 Dipole_moment: 4.587
 S          -0.49389969005391   -0.16125756632161   -0.97330629502326
O          -0.51319005089856   -0.57930172445885   -2.45589038997392
O          -0.57129087228302   -1.36476446333497   -0.14477617339469
O           0.75124434491177    0.56131047484148   -0.70754631470871
O          -1.64560868708713    0.70442865689178   -0.74672596247480
O          -2.37875689380789   -0.63437316279465    1.51169353789687
H          -2.90653725134175   -0.18791062144701    0.83869541010533
H          -1.66508585844329   -1.07370213226793    0.96898408660938
O          -1.46973529638454    2.84901872752480    0.64032527812703
H          -2.28481800859417    3.32987469126016    0.48537113504604
H          -1.46338513380077    2.09413298056058   -0.01486007561904
O           1.24432430347920    0.79177388691968    1.79329471412643
H           1.07633291093927    0.64049183933667    0.81635580792808
H           1.78878113199640    1.58105834045893    1.84270335373596
O          -1.10987076391144    1.24648016467744    2.56564412163101
H          -1.67261597731099    0.41028908418319    2.21894846328604
H          -0.11460154375639    1.01266274409021    2.36705320488401
H          -1.31065400520092    1.99727338902325    1.88994894224060
O           0.75749835600910   -2.74802783182563   -2.03088081509344
H           1.65760438283425   -2.36321513269999   -1.88853200793636
H           0.32393145744286   -2.70474080866716   -1.16519150523401
H          -0.02467702851687   -1.46181046361983   -2.46647694241191
N           2.87894577116249   -1.21251700085819   -1.42290892150208
H           2.21320004936624   -0.47694909610775   -1.18124600659838
H           3.49390858090827   -0.84828447507910   -2.13948109628800
H           3.43895572233891   -1.40194051029024   -0.60119555935579
