    26
        -50.45499940  Gyration_radius:  2.50011940032 Dipole_moment: 4.591
 S          -0.87286936421452    0.44222839785747   -0.51075293534528
O          -1.54517457587665    1.43287314191773   -1.48024942445561
O          -0.33171345754466   -0.67674733468190   -1.28277512222419
O           0.20165573668226    1.13874238833011    0.19880727562873
O          -1.89261740498996   -0.01380196679815    0.42692132097807
O           1.81046651236850   -0.46535743223092    1.37714712178329
H           1.21337955606244    0.15184445203269    0.85937720250821
H           2.16858179919925    0.06281141168078    2.09451760168235
O          -1.18821535602899   -2.63019463523905    0.12963004494430
H          -0.76995786638520   -2.00012030119380   -0.52224367673060
H          -2.04438304551498   -2.21815532148572    0.29693977284489
O          -1.42123189219661   -0.22181941865719    2.93482159560804
H          -1.61060465711253    0.01636263127672    1.98276160041802
H          -2.27490925982189   -0.34674768727562    3.35341468173702
O           0.11456423558899    0.97350340831306   -3.36024452978547
H           0.88966374081179    1.46621223227629   -2.99301896076412
H           0.16014961809924    0.09324674385728   -2.95732700373897
H          -0.98422289176023    1.37401193450067   -2.31641981932688
O           0.09756128895678   -2.11274519754755    2.21226008042903
H          -0.53080659522580   -1.41914082320868    2.64190972901120
H          -0.41335785241601   -2.43671112643196    1.33458066721739
H           0.89130113521110   -1.53064131739761    1.87200115348104
N           1.96983853109917    2.14985947106176   -1.81015365669285
H           2.08604898647015    3.15497435140647   -1.78811043422950
H           2.88227865072076    1.72988218542984   -1.68484088707911
H           1.39457441782251    1.88562983220574   -1.00895340789534
