    26
        -50.46060890  Gyration_radius:  2.5868073351 Dipole_moment: 5.766
 S          -0.25215320679076    0.12510449565278    0.63993851563412
O          -0.72539645690472   -0.91439580714314    1.52716847075665
O          -0.84016771489552    1.44349350009215    0.95044044039476
O           1.28080608997429    0.30072162355535    0.83973674974379
O          -0.47640647051225   -0.17086578198267   -0.77032249893113
O          -0.66492006242197   -2.83406173570136   -0.31072867410057
H          -0.86923162735254   -2.33571606066513    0.50133010344716
H          -0.57632104636848   -2.12744741435588   -0.96380227146912
O           1.76614476546869   -3.63170685382362    0.45021121900100
H           0.88468717480155   -3.40678691826577    0.06795042084411
H           1.72197683903441   -4.55638519348927    0.69805731155181
O           1.10044082416554    2.83606873334219   -0.30322188726497
H           0.44503703901219    2.42191771391738    0.28907140932310
H           1.92883643610156    2.40031880390543   -0.08840253743439
O           1.70512994456249   -1.71423550401416    2.32153584906946
H           1.58777796329379   -0.45658262640229    1.43752569219890
H           0.74305203828262   -1.70409042244152    2.44277395298847
H           1.88544389565197   -2.44369251195135    1.68439490725959
O          -0.14555612232297    1.82470372006439   -2.43558298306320
H          -1.41162568392676    2.21925787038133   -1.77524143488477
H           0.48844096285011    2.33539880249451   -1.88521695123694
H          -0.14497175173538    0.93284252048276   -2.01728376792601
N          -2.21087562322454    2.35595398350016   -1.02232182984118
H          -1.73439216157126    1.97618058022093   -0.12496822974531
H          -3.02337874669545    1.79178519589338   -1.24804020849681
H          -2.46237727848805    3.33221926674124   -0.90500178781454
