    26
        -50.46060893  Gyration_radius:  2.5871858521 Dipole_moment: 5.776
 S           0.50235946092867    0.08520433549263    0.47568333994305
O           0.09696051216381   -0.21755130363245   -0.89210481444813
O           1.31145414448130    1.32046104916068    0.47183322185253
O          -0.78520035959064    0.43885206636063    1.27440809541015
O           1.17515683117634   -1.01398719422174    1.13195416694376
O          -1.83197823961288   -3.39829180336418    1.27219348465537
H          -1.16602766718690   -3.27619066116728    0.55438488931551
H          -1.79531009873567   -4.32430990187762    1.51619898391936
O           0.14648093727489   -2.88968132407759   -0.44634080557178
H          -0.11930913593401   -2.16994896357452   -1.03367474875486
H           0.72129617852206   -2.42944721345899    0.19184052503048
O          -0.80109675953293    2.94653197860525    0.05824772028537
H          -0.01309702818573    2.45082468539361    0.35006664422914
H          -1.51429533240296    2.60954736367833    0.60604602913473
O          -0.64786864025002    1.82221240127524   -2.35738680963437
H          -0.94326330900888    2.39771588581273   -1.61771029839426
H           0.81214876742612    2.05723933603548   -2.27900942525852
H          -0.57997142759431    0.93196518137352   -1.94088769821917
O          -0.78884611303028   -1.52517259948689    2.88040876964025
H           0.13234822698584   -1.63132463357275    2.59639845703868
H          -0.90308310008997   -0.28170270841446    1.97572600157790
H          -1.29689612172210   -2.22015110898891    2.40143002908949
N           1.85790420523929    2.09067521106061   -1.91823320076350
H           1.74683989943155    1.75778028440168   -0.89205766889602
H           2.24199387288668    3.02969853823010   -1.94697387959095
H           2.44130029635741    1.43905107896216   -2.43244101854001
