    26
        -50.45499934  Gyration_radius:  2.50014754699 Dipole_moment: 4.581
 S          -1.09289084161070    0.13575853136508   -0.07729160591780
O          -2.35975746593324    0.88688229643138   -0.52845086238487
O          -0.09670922402351    1.11716042126343    0.35579296330049
O          -1.46982891898641   -0.73353258046758    1.03146689753295
O          -0.58266158759457   -0.64450580868078   -1.20510769485590
O          -0.01588285042138   -0.95980937816572    3.12614136641997
H          -0.62581191037758   -0.73029710629241    2.36804248682186
H          -0.55430424534516   -1.42180292123260    3.77129639971207
O          -0.17413059465153   -2.88246888850968   -0.03557444638017
H          -0.26027749258201   -2.09261401441452   -0.64038417769880
H          -0.97766112161422   -2.82652769403821    0.49543711443637
O           2.25199139450587    0.11879539171189    0.55134515843626
H           1.34216900758924    0.51579316281032    0.40961240651737
H           2.68169326529256    0.68205876605910    1.19934451580507
O          -1.51689534504396    1.21296171902583   -2.91196550755838
H          -2.18265964170235    1.10256284960745   -1.49788614840932
H          -0.85048113151058    1.92230311761621   -2.73497823719960
H          -1.05021678309347    0.38014285319337   -2.74490900846520
O           1.59874046037172   -2.10112099456617    1.54708419067165
H           1.00917381090402   -1.72135858904111    2.30147487797467
H           0.91095291027605   -2.51735939098538    0.84711000169704
H           1.97516392703095   -1.24452791197256    1.09001838922630
N           0.34321690578655    2.85352127736100   -1.87503058501252
H           0.23817141680918    2.33720052607102   -1.00036422344283
H           0.14652958869480    3.82761275564752   -1.68364483209766
H           1.31236647722443    2.78317161020361   -2.15857941912968
