    26
        -50.45499946  Gyration_radius:  2.50023358072 Dipole_moment: 4.586
 S           0.13527605553164   -1.02956020559026   -0.37304232528168
O          -0.38003685086116   -0.81180262239769   -1.71991578228643
O          -0.94136533374600   -0.97217191004898    0.61613700111764
O           0.76374423083141   -2.43564741849890   -0.33927415906321
O           1.17228333995704   -0.04632875042016   -0.05528045398349
O           0.20868795522527    2.24951999630627    0.53696884985380
H           0.57363748724752    1.33106611356850    0.36701057759033
H           0.91899337119457    2.85543847444355    0.31298728428472
O          -2.77353966134208    0.11432257964491   -0.80051608044989
H          -2.54979471574630   -0.38873591723938   -1.59278294504846
H          -2.18243540683977   -0.29826056595592   -0.10959666294931
O          -0.04837956077688    1.40893684771853   -2.94977930490629
H          -0.29680099558810    1.24436091521128   -3.86126126289345
H          -0.02436049837315    0.51539070622810   -2.50237571348073
O           0.39084612309195   -2.72110919529095    2.16634002700569
H          -0.37355712876941   -2.14691691658757    2.00738585841044
H           0.69595902181000   -2.70956559509024    0.62919876650785
H           1.10482770701404   -2.11735760714096    2.48912200085584
O          -1.62758865161018    2.30433418166701   -1.18653850122039
H          -2.20465039411125    1.42941075082582   -0.99232878281017
H          -0.94250643871577    2.36419558450013   -0.40440642542424
H          -1.03724175748201    2.05669522956647   -1.99319330776324
N           2.21098362939347   -0.77242601263186    2.50967332670443
H           2.04327886593736   -0.01372093424670    3.15842690522441
H           1.95958292809735   -0.44312020339431    1.57637765837965
H           3.20415668862666   -0.96694749514608    2.51066343162445
