    26
        -50.45499938  Gyration_radius:  2.50018189559 Dipole_moment: 4.587
 S           0.16298986426121   -0.52475208367393   -0.95731775998094
O          -0.09358930570261   -0.76651821294078   -2.45692893037768
O           1.09123955671178    0.59719673346636   -0.81435290906681
O          -1.11267008007462   -0.21666228445390   -0.30845834516048
O           0.73369704383759   -1.74896646598645   -0.40714468416057
O          -0.81539581063414    0.80571769453151    2.01888752902447
H          -0.92083589889353    0.46522648343608    1.08155565277446
H          -1.62991521075376    0.57375082755939    2.47120259007300
O          -0.02385807679239   -2.69743780387887    1.84685276113216
H           0.34368824461191   -3.58175868699205    1.89687572742545
H           0.13377625667753   -2.38321008260581    0.91108945430071
O           2.72017205785524   -0.40258624062317    0.88611344787848
H           2.18802684669300    0.14128355417756    0.23962171942451
H           2.70547116946677   -1.27861988848380    0.48224985833747
O           0.09670200478228    1.70415654704302   -3.05545982320415
H           0.70498732670117    1.72782649391050   -2.30130650481569
H          -0.05286151735495    0.15604559864246   -2.86279647004130
H          -0.77293541959310    2.00863102930838   -2.69556539813414
O           1.10495877876399   -0.63475450732134    2.78236946316115
H           1.86136556842217   -0.48682108641322    2.04608789885233
H           0.35518070142758    0.05015788947384    2.55151461876101
H           0.67523755903466   -1.53890316139224    2.54042626866530
N          -2.17658677161539    2.06588091541632   -1.66641935218061
H          -1.92790052381893    1.22730974949756   -1.13953030091375
H          -3.08548576002112    1.90972671402105   -2.08327354817759
H          -2.26545861400033    2.82808026426722   -1.00629295359575
