    26
        -50.45499936  Gyration_radius:  2.50021836778 Dipole_moment: 4.585
 S          -0.21187895509172   -1.06070924276313    0.22089733009571
O          -0.48015901488948   -0.33230014804501   -1.02027159167452
O           1.08130940748255   -0.66122971732085    0.77686206282079
O          -1.28490338674928   -0.84195151791215    1.18418713399061
O          -0.17115534933044   -2.56840682408261   -0.09232083356003
O          -2.91531832121099    1.11954206350598    0.96713314603137
H          -3.62433096900722    0.94191604839931    1.58788331507582
H          -2.36120017258333    0.28820997779588    0.93260937099308
O           0.01901249587558    2.17043837849892   -0.82388008454633
H          -0.55644398657021    2.56577514269387   -1.48298083168424
H          -0.11168233463661    1.18004896930727   -0.91086182813599
O           0.28562373526113    0.70799461058748    2.78593939899589
H           0.76600250526560    0.22625130663246    2.05510244496858
H          -0.43206857308219    0.09959924763261    2.99937211359867
O           2.30095235374952   -2.53905894517845   -0.71415398427394
H           2.34186888646812   -1.81422711991398   -0.07211923646622
H           0.78424460517593   -2.73322519986483   -0.37078621742351
H           2.22428541927529   -2.09846914092880   -1.59648823556556
O          -0.87542894494749    2.51665069350819    1.50548115088020
H          -0.42880194655460    2.47715805417370    0.56554030303691
H          -1.78780121370750    2.06554096451878    1.34732883689947
H          -0.33072671934927    1.82635072681036    2.10775852274148
N           1.59877561920400   -1.05970969371604   -2.84635242922353
H           0.78351930707538   -0.76279884092263   -2.30796627229449
H           1.26513738812149   -1.48410882121112   -3.70235616490496
H           2.12116818476070   -0.22928096220665   -3.09555741037705
