    26
        -50.45499939  Gyration_radius:  2.50019714857 Dipole_moment: 4.584
 S          -0.29480480912489   -0.70004669253374   -0.80061478355294
O          -0.74401803632913   -1.04533787043038   -2.23303691090804
O           1.15290766776026   -0.48762028689167   -0.80048405405163
O          -0.98849381226715    0.51628224879054   -0.37343936993314
O          -0.65832943059652   -1.82331289903253    0.05570884309440
O          -1.70655116022093   -1.47745652565014    2.36533949390819
H          -2.02437011894444   -2.33903216540605    2.64147149557174
H          -1.44047828664697   -1.57342194403743    1.40647851847678
O           1.79751620768966   -1.89217938025228    1.23823359892945
H           1.17360822528303   -2.59823931643640    1.03090002250331
H           1.72634691291203   -1.29998049503928    0.43754925655486
O           0.06869821882673    1.57744213452234    1.70195307373690
H          -0.65950125437496    2.05747620590826    2.10338837181776
H          -0.29845906596544    1.19123390600071    0.85248184698696
O           1.01529149471430    0.44525573376182   -3.31985713398271
H           1.52981748768531    0.23046517698627   -2.52714210531875
H          -0.12116504235263   -0.51023631522382   -2.81900475633524
H           0.60072282002489    1.32286255873238   -3.12872505889404
O           0.57174776290623   -0.54845520729853    2.95613268935144
H          -0.36802806541052   -0.96059013864034    2.86726400421813
H           1.18181049959442   -1.11504193855889    2.29087964760912
H           0.46195002442841    0.38409645345591    2.50564430415361
N          -0.32938637148445    2.53383108989999   -2.29193512327224
H          -1.13199218864081    2.93312970299385   -2.76157423242515
H           0.16007625024127    3.28515175852863   -1.82229699816162
H          -0.67491592970574    1.89372418585114   -1.57531465007411
