    26
        -50.45499947  Gyration_radius:  2.50040230635 Dipole_moment: 4.581
 S           0.81511181139788    0.71148741418115   -0.21230783514528
O           1.37891479817692    2.11580927976293   -0.50035901490799
O          -0.23485261109550    0.82810242419622    0.80115333346171
O           0.26723406895799    0.16151592721344   -1.45263685742962
O           1.91445448557957   -0.10931187902071    0.28251062355211
O          -1.68952747954966   -1.27175792542753    0.96119218748144
H          -2.01591935081876   -1.24956903796176    1.86387498626939
H          -1.15632428562325   -0.43028432000362    0.84637522945102
O           1.63057826923468   -1.69047389821568    2.27537694693946
H           1.74259140899058   -0.95664726943928    1.60576127235561
H           2.51599575708533   -1.96308507818862    2.52295976629461
O           1.29787980164772   -2.17897146150914   -1.38285416103383
H           2.14774554997945   -1.86724949651847   -1.04929643938345
H           0.81100046371693   -1.32607753329149   -1.56300882653401
O          -0.38474253959477    2.64184297679790   -2.26419732570576
H           0.76505715392453    2.48360109298177   -1.21134301200908
H          -0.36724294168588    1.68392862145487   -2.41039148800530
H          -1.15238022557766    2.79689896081678   -1.65988597591814
O           0.14177107785406   -2.97948748147642    0.68646108518108
H           0.77080803633906   -2.59153177916324    1.40394638642984
H          -0.69631770284128   -2.36481639678950    0.75278053735444
H           0.60209194314524   -2.73255715951589   -0.24237176496246
N          -2.17592682279732    2.64287639191483   -0.25940503327650
H          -2.33096716453322    3.46130373636864    0.31532986692949
H          -1.53714056798880    2.02562732334974    0.24420798100233
H          -3.05989293392325    2.15882658748081   -0.35387246839331
