    26
        -50.46485771  Gyration_radius:  2.56510222715 Dipole_moment: 4.111
 S          -0.71568577396200    0.12095597881076   -0.57275399412041
O          -0.98818379443978    1.01520808818636    0.54786664985185
O          -1.89111877716168   -0.66494085982314   -0.92671849531220
O          -0.34820576256127    0.99261032288399   -1.80126417941461
O           0.42731095116381   -0.74708547791426   -0.27361251913621
O           2.50746745151666    2.84750466364274    0.03316081050314
H           1.55832546572582    3.11406210777398    0.05192477955726
H           3.00104693783882    3.62947163415920   -0.21835655535103
O          -0.09776805581565    3.39885696694848   -0.19844345229275
H          -0.48790578766706    2.59748402900906    0.20803891194624
H          -0.33267922623037    3.33915715221204   -1.12817700291934
O           0.23534182839595   -3.37108826168020   -0.21680423568020
H           0.42796825128277   -2.40361635516774   -0.25041968016592
H           0.26928106214674   -3.67517957099277   -1.12520021733924
O          -0.65733644051945   -0.70906556802775    2.48076904987055
H          -1.51678392385841   -1.83813900930599    1.72222233872351
H           0.27988860916459   -0.89831798303263    2.38512090258897
H          -0.82082747355450    0.05291914387631    1.87471770100374
O           2.17223047091640    0.77205768555485   -1.60833146086400
H           2.43190856559181    1.51932041829297   -1.02029568362151
H           1.95000547063840    0.03595507374238   -1.01705555201591
H           0.66550477902076    0.97096352130770   -1.86099126304837
N          -1.95001906700257   -2.41934807023141    0.94662430887574
H          -2.09721862291022   -1.71893587953910    0.14341439152965
H          -2.80520411077813   -2.88341415736152    1.23083222277633
H          -1.21734301694048   -3.07739558331282    0.59373223405885
