    26
        -50.46485763  Gyration_radius:  2.56539277886 Dipole_moment: 4.108
 S          -0.87136345931445    0.30235579386140   -0.09046678660723
O          -0.66309493812767   -0.55935752342043   -1.24963854782303
O           0.39044600982254    0.52034789935674    0.62344780516805
O          -1.48328933169042    1.56964030594200   -0.47026237665399
O          -1.84915575064153   -0.41958147145540    0.87203727742167
O           0.32420149746977   -3.61503643116267    1.10862975515041
H           0.11906151539237   -4.47840922195518    1.47032996209929
H          -0.34891944129629   -3.44122568461437    0.40934730566145
O          -1.63825562302915   -2.93007769034247   -0.57196320184965
H          -1.26018948056121   -2.11942184672810   -0.97154800758901
H          -2.38301730095586   -2.62000731829276   -0.05013735378076
O           1.43703130548347    2.91101060700765    0.95933548031900
H           1.11632362639213    1.97812281237793    0.92577959738243
H           0.97737127969612    3.31831171570072    1.69525325381209
O           1.57291490420300    0.49404138934269   -2.09239317484551
H           2.15719639902065    0.26606068061727   -1.36443664620305
H           0.74092385598851   -0.00502080853603   -1.91015492076560
H           1.02755370650978    1.99614485910346   -1.90012803221742
O          -0.10430570113911   -1.35518927532131    2.45934299323808
H           0.13122429287461   -2.22872495412419    2.06807464411119
H           0.47368100020057   -0.70779600409858    2.02613195864813
H          -1.26869274434390   -0.83229946279633    1.59606434721366
N           0.49285853859072    2.82968514183569   -1.51796125378284
H          -0.43625855029521    2.41097855661604   -1.17315368106231
H           0.36678870688916    3.56606569502061   -2.20308125280981
H           0.97896568285734    3.14938222607449   -0.64844912425271
