    26
        -50.46516755  Gyration_radius:  2.53877110387 Dipole_moment: 5.802
 S          -0.39671869475026    0.16450247151255    0.44863230356727
O           1.03588416508937    0.43822161310301    0.37995184771133
O          -0.82611176605445   -0.36210313365763   -0.95784561763926
O          -0.65339519749512   -0.98905585330484    1.32613790183627
O          -1.17748558632841    1.32649810238146    0.78658568816317
O          -2.91440831436273    2.48419715958213   -0.86002471404106
H          -2.32788032636814    2.12289248028999   -0.16274947327998
H          -3.77854476061666    2.10037281511482   -0.70684417047285
O           0.75096770676763    2.84400002586380   -0.72259304361012
H           1.02075093139288    2.00751411784272   -0.29752110115019
H           0.11120768682903    3.23399231980809   -0.12038644499248
O           1.50972248150212   -1.65780756350551    2.80003030766288
H           1.75194943857629   -0.93442639195903    3.38010209994023
H           0.66315052327007   -1.39777327955580    2.38545039012453
O           2.57236899325173   -1.68889906490624    0.33211403843039
H           1.36030694084013   -2.42991532871398   -0.12616082658071
H           2.19580039725545   -0.78355617440610    0.23109386974311
H           2.51675487861435   -1.83487440981031    1.29865699780758
O          -0.89667396879566    1.66459955867523   -2.44531951114742
H          -0.85107234084735    0.43720393135698   -1.61473433063805
H          -1.73265066012189    2.06526779330373   -2.13370979211548
H          -0.19010817922295    2.20466839136844   -2.01939269146385
N           0.31400058439978   -2.73408654321452   -0.28697402884913
H          -0.00758041973142   -2.42880996112032   -1.20419981437758
H          -0.21272714040475   -2.12563186600946    0.43057573685140
H           0.16249260731883   -3.72699122004394   -0.14087563148587
