    26
        -50.46516759  Gyration_radius:  2.53870387088 Dipole_moment: 5.804
 S          -0.00130077049761   -0.54323939257169    0.30126552646956
O          -0.43868921802988    0.75582590904124    0.80432690052187
O           1.35772421768458   -0.84366907740629    0.78021314606236
O          -0.94718199181976   -1.59717812303228    0.56314629289067
O           0.19592416375660   -0.38985347368471   -1.24062545859270
O           2.13660661845296    0.81844701695113    2.76264690541712
H           1.56078420964406    0.72025481308936    3.52243593288055
H           1.87453105872557    0.11629297314017    2.13460771325743
O          -2.28592946616588   -2.90066914082122   -1.32816705158482
H          -1.82665559288939   -2.51161267515610   -0.55458915272032
H          -1.78301581984925   -3.67796876836513   -1.57394298431120
O          -2.99905386855609    0.38744464336460    0.17658192000655
H          -3.15140747646351   -0.47363163105742    0.57577739491858
H          -2.11706276414604    0.66055740014496    0.49383263328448
O           1.42553944693723    2.60129974693370    0.88190474877350
H           2.15491862879764    1.76421409026564   -0.11587137335513
H           0.57107281220033    2.11185673282197    0.83665105319597
H           1.81670587416524    2.26813217541404    1.71528730567261
O          -2.12086128839891   -0.36385989991587   -2.21880099833802
H          -2.60959634736539    0.05225072332178   -1.47026695567537
H          -0.73587650866568   -0.35438933155911   -1.68954332392518
H          -2.33544200755678   -1.31573242959829   -2.15242491318752
N           2.52147814119221    0.90269190331006   -0.69593957211249
H           3.52952948392736    0.90404716147052   -0.81426690119687
H           2.03165454293014    0.84025233553711   -1.58705227945434
H           2.17560391198786    0.06823631836283   -0.10718650889145
