    26
        -50.46485761  Gyration_radius:  2.56520597651 Dipole_moment: 4.105
 S           0.91159082510084   -0.14505061482518    0.02227670269692
O           1.58844995929382    0.14017947046971   -1.34325383920368
O           0.32832966469240   -1.48148475016309   -0.03528552024680
O           1.94085220066971   -0.05553045715875    1.05042187277810
O          -0.13088649998696    0.86416081293280    0.23207770593967
O          -1.62155866486578   -0.57114457555704   -3.38438000609390
H          -1.74162019523714   -0.68815937655227   -4.32793423127098
H          -0.96965062567631   -1.25494671406612   -3.10190699107500
O           0.36514248603527   -2.17564591874566   -2.59435922126847
H           1.19746396053864   -1.75732030387788   -2.82987304079392
H           0.30263669897684   -2.07392978787292   -1.62204990977486
O          -0.14957822114089    2.45694729923874    2.32632664897654
H           0.47957284630023    3.15815699417954    2.14978914481289
H          -0.21788819303043    1.94083333690294    1.48771468994253
O          -0.29704520532341    1.50324569921587   -2.35633670065423
H          -0.60592559138083    1.55107669220128   -1.43809472676483
H           0.93250026981334    0.71825435706685   -1.85998247451554
H          -0.86755032062349    0.83074710822808   -2.79678697053345
O          -1.37812235484342   -1.22095900256062    1.92406161186008
H          -1.96350584247524   -0.55347708817512    1.55650667765726
H          -0.79164771522312   -1.47921271236279    1.17310434279337
H          -0.28914083562480   -0.52043172551477    2.87982753524999
N           0.54466919272563    0.05193122679098    3.20225220817906
H           1.25980523087115   -0.05193117775591    2.40539589517638
H           0.90526470912678   -0.24699588701351    4.10121534200348
H           0.26784224123873    1.06068710499685    3.17927325413915
