    26
        -50.45488104  Gyration_radius:  2.4742102517 Dipole_moment: 0.414
 S           0.31404889523699    1.26597832982350   -0.47493919566253
O          -0.65585125658410    2.06170674499584   -1.32715824998025
O          -0.34463247575065    0.79906308725925    0.72064011624009
O           0.89702058484406    0.19377165056839   -1.25520794206605
O           1.38234387491053    2.29300551020843   -0.12650731584895
O          -3.00465503796450    0.73118842430652    0.99614698189756
H          -3.28217481945400    1.56683798101795    1.37538673457885
H          -2.02898126698885    0.71411184885586    1.05140583368630
O           2.59358010619087   -1.20510435265394    0.34070517538150
H           1.86445549421266   -1.67484451570993    0.81395019231282
H           2.14871331129866   -0.82331609687634   -0.43272449066733
O          -0.99743414514655   -1.60058651672105   -1.70682766588597
H          -0.82903313932627   -2.01346145655020   -2.55622028975557
H          -0.22696252861416   -1.02223268287566   -1.52473201559518
O          -2.59976090262774    0.54440247355315   -1.62390164014136
H          -1.52031255790516    1.46328281911105   -1.52230588517413
H          -2.16459931155454   -0.33459593077692   -1.70717801527430
H          -2.97542385696997    0.56476649954915   -0.71296812497793
O           2.94616110494381    1.09827398272325    1.43486756806299
H           3.85455657553815    1.35975966232361    1.26555593668936
H           2.02410357546923    1.85820860169490    0.55963279390229
H           2.86014807059512    0.14496639137168    1.10723887779126
N           0.21168299093431   -2.02525814504929    1.29035343531257
H          -0.07184139858603   -1.04834228194158    1.30608788456569
H          -0.07901764939098   -2.44645105601527    2.16363259109100
H          -0.31613423730753   -2.46513095218767    0.54506669950839
