    26
        -50.45488104  Gyration_radius:  2.47419881707 Dipole_moment: 0.413
 S          -0.70046988456283   -0.97627851839253    0.69532606033893
O          -1.49540940020584   -0.29497385004279   -0.30578485683085
O          -1.27065008276665   -0.71798363573798    2.07670223758899
O          -0.85337701058440   -2.48297645548250    0.54054908999058
O           0.69306476750636   -0.60485835754563    0.65683868578832
O           1.84305888651404    0.95901840410765    2.49752683892322
H           2.19018709100704    0.39311906134687    3.18914712438442
H           1.57252319920565    0.36804425999490    1.76755910823107
O          -1.07318165984811    2.30587884001699   -0.04294233848157
H          -1.87456007201925    2.77069328093950   -0.29205046185172
H          -1.22814070598006    1.36017505443460   -0.25013769248439
O          -0.39897562327268   -0.77403807209091   -2.74521422984900
H          -1.02033150278264   -0.55004529145958   -2.03414009661354
H           0.34255390321706   -0.13536066368374   -2.60891031309285
O           0.23066925492449   -3.02212560309843   -1.66049170297519
H          -0.37276866690346   -2.75919775589263   -0.33382439474886
H          -0.26062124513579   -3.70860162527140   -2.11833387564341
H           0.06726435652193   -2.16623336295518   -2.17454469287213
O          -0.72009224431860    1.66063519663428    2.53275564137010
H          -1.09419227506482    0.30301861286270    2.34121718120561
H           0.25447624491768    1.59055835230408    2.66170843593697
H          -0.83719939361224    2.07326183208107    1.64677585669378
N           1.37979504857412    0.96892574078991   -1.72310932430062
H           1.37199414465155    0.41393136634871   -0.87050030443185
H           0.91066861886829    1.84006701563145   -1.50265338658112
H           2.34371424114304    1.18534618415973   -1.94346858968686
