    26
        -50.45488109  Gyration_radius:  2.47425307857 Dipole_moment: 0.415
 S          -1.33324689286778   -0.35214286628311   -0.15772699051698
O          -0.41102606900237   -1.29107192787084   -0.76288322304212
O          -2.41730527414886    0.02628928751600   -1.15724175896779
O          -2.11568978492869   -1.03166310973494    0.94959555039705
O          -0.68120483327257    0.83041509358358    0.34990119975665
O           1.50219601378506   -1.79451211052280    0.99734398921340
H           0.87377458063985   -1.60826549768632    0.26818882781037
H           1.80448452117510   -2.69578577829514    0.86838925512700
O           0.97487861206867    0.00090812437674   -2.71033377514819
H           1.56072084516436    0.47301009638528   -2.06989595988178
H           0.55934483540741   -0.68781210525070   -2.16729604448812
O          -0.32583553860598    1.30144508078783    2.95911988075023
H          -0.39833378143630    1.27884769445350    1.98469197170496
H          -1.08571670621068    1.79295275986866    3.27543542322712
O          -1.22376045746647    1.31799399708575   -2.95096191577566
H          -1.97764810345919    0.60764547617482   -1.89241473655874
H          -0.30649332671148    0.89215616351933   -2.92175669429161
H          -1.58919318588018    1.11030772492243   -3.81440934310477
O          -0.45556148026316   -1.34635957757609    2.77002405235968
H           0.36321939348009   -1.56141350879863    2.26782096684294
H          -0.34358682838481   -0.41263857419716    3.06490755789296
H          -1.45965018374928   -1.22564601179602    1.77145192723499
N           2.11924443140444    1.03354490203190   -0.50317826476671
H           1.18193289260316    1.18093712184286   -0.13619388661082
H           2.65588474311140    1.87395319298346   -0.32934492949461
H           2.52857157758669    0.28690434244563    0.04676691036533
