    26
        -50.45488107  Gyration_radius:  2.47417703366 Dipole_moment: 0.414
 S          -1.34933985427565   -0.25039686544003   -0.20947039341245
O          -2.52400952249757   -0.56018369480699    0.70794458284259
O          -2.02525874383684    0.07150492363273   -1.52842356313195
O          -0.62548589399437    0.90147371276733    0.27063281691587
O          -0.51326636122210   -1.42456612968095   -0.35307960195192
O           0.68781129034406   -1.92006988301634    2.03324122775791
H           1.34600159886680   -1.19090335762009    1.92667214665974
H           0.31774308688288   -2.01914847047532    1.14154816820310
O           1.56277412835684   -0.76146971612318   -1.85708578899085
H           0.86544689062960   -1.06648818092436   -1.23906040042683
H           1.83254299332676   -1.53255276513148   -2.36005310126875
O           0.00956776498000    2.98439681552875   -1.28326253286438
H          -0.16480017744341    2.31330434640387   -0.59439535818679
H          -0.70325033932344    3.62283203202440   -1.22544862856306
O          -0.19078058936602    0.93474409979673   -2.96319190764679
H           0.56689191593843    0.36727446463045   -2.69343220718926
H          -1.29102382264175    0.43123688496825   -2.21751126170200
H          -0.03056458976696    1.80666045266366   -2.53258088963433
O          -1.49861082582237   -0.93595354851555    2.97019221603869
H          -0.59150313655632   -1.30449570800438    2.71556722758018
H          -2.15201315100146   -0.67211118036927    1.66754631536076
H          -1.95551864919132   -1.64237130465020    3.43325787671628
N           2.07505783810501    0.23313810958381    1.20472862145008
H           1.18393752318887    0.66949816746001    0.98020267095018
H           2.52407960992747    0.02588480109870    0.31990093671928
H           2.64357101637503    0.91876197420514    1.68556082775651
