    26
        -50.46654165  Gyration_radius:  2.46930915175 Dipole_moment: 5.994
 S          -0.61166720490830    0.90474119844717   -0.32619449866545
O           0.54015741232927    1.58679897981928    0.28178563158423
O          -0.15064662574967   -0.03316435344896   -1.35238528121804
O          -1.43150969014398    0.25003179118502    0.67210269044027
O          -1.41968592067586    2.02489176587468   -1.01597907746329
O           1.62693313700452   -1.80639965884766   -0.51824218032376
H           2.45337909291108   -0.66520314409912   -0.12110174259938
H           0.97035288892629   -1.30343285607342   -1.04703135563134
O          -2.36918325047574   -1.47967681514172   -1.25777672072688
H          -1.48222913610511   -1.09497426304420   -1.40738191218774
H          -2.50082673354367   -1.40089109620080   -0.30670389535883
O           1.42733425602339    0.80487866319093    2.67440998433880
H           0.98370136705818    1.16431342681005    3.44383340378450
H           0.97642504235543    1.19342655457742    1.89443913137708
O          -3.38788527807413    0.77467910533725   -2.14599258335277
H          -2.22729075681818    1.59980735331885   -1.41840245774937
H          -3.26644228705316    0.78462367907371   -3.09778107261461
H          -3.17517787296974   -0.14759700811490   -1.84812595033542
O           0.25103503753618   -1.53123567587559    1.70662273637051
H           1.14475427938826   -1.98082286826138    0.32878145821990
H           0.76087578356394   -0.93450280818441    2.27501392471236
H          -0.48195438627325   -0.97573514087964    1.37158717297687
N           2.81017932694576    0.33037156951930    0.21677321217423
H           1.94762309132872    0.94816985768047    0.09958324161525
H           3.59924354717262    0.67497856177805   -0.31824783476349
H           3.01250487015678    0.31192317156552    1.21641394538625
