    26
        -50.46654165  Gyration_radius:  2.46942395328 Dipole_moment: 5.993
 S          -0.75988148813486    0.23844985514875    0.81477504044328
O          -1.40380534762610    0.64560730828831   -0.41690242884756
O          -1.59349516005606    0.71350622332127    2.02424458887308
O          -0.70867855575270   -1.22548756725278    0.94042769167433
O           0.58908886290112    0.79642738870393    0.93420916627458
O          -0.86130244452450   -2.74469633175577   -1.24860023116404
H          -1.73704499034395   -2.94043653300260   -1.58440261973995
H          -0.99381371747267   -2.18388063803536   -0.45452163062173
O           2.35836697354076   -0.20650802121020   -0.75757467607519
H           2.03625686074772   -1.51593446670785   -0.18843435830354
H           1.90117745136904    0.33723689554366   -0.07993737612275
O          -0.05808233646416    3.04768785282006   -0.30562738780921
H          -0.65844357535760    2.64316600251824   -0.94129401194289
H           0.36856398087749    2.28610333010602    0.13583658275936
O          -1.58778110516186    3.29650964849857    1.81721365978872
H          -1.67216827244018    1.70543698209112    1.95628589949377
H          -1.04561810357613    3.67054960964929    2.51500239703108
H          -1.06181076551253    3.38192513596647    0.98015603236556
O           0.21026531068852   -0.37941638158573   -2.26581493017787
H          -0.42198525039487    0.10431674747179   -1.69626651758524
H           1.72978196218223   -0.18462544681209   -1.52225056306928
H          -0.08605493787398   -1.30093832123017   -2.22029587961585
N           1.52307347494427   -2.37824994049032    0.28701906901673
H           0.66372529532492   -1.93040889865369    0.73450047987758
H           2.09830464741120   -2.85971666674155    0.96887515505825
H           1.17136123061329   -3.01662376678234   -0.42662313154222
