    26
        -50.46797331  Gyration_radius:  2.47240550475 Dipole_moment: 6.423
 S          -0.31793824967816    0.92731396020944    0.56879762094772
O           1.01001181009769    0.37653334122044    0.84099811589730
O          -0.56530613342086    2.10282441775798    1.53783042908142
O          -0.34125474078081    1.49571749569514   -0.78560270967247
O          -1.36394317168655   -0.06222492758962    0.74760387875195
O           1.78402120692930   -1.49496874975303   -0.85669271874346
H           1.68474165641102   -0.89817288126908   -0.08300404109972
H           1.61536609021116   -0.48464356828251   -1.88890971017465
O          -1.54515167005653    0.04187265304647   -2.67830516896077
H          -2.49817794625393    0.11804246490303   -2.74261239451570
H          -1.27506758270387    0.62719198495294   -1.93922915233992
O           1.06397589575215   -0.37239925039233    3.38093587700851
H           1.10884875649106   -0.16088150674787    2.42382733643256
H           1.79537911129180    0.09070733700404    3.79246498004401
O          -0.78243784400841   -2.02746682089989   -0.97181969413907
H           0.90575823951316   -1.95332574056111   -0.90051091479150
H          -1.05552843595816   -1.45968882052245   -0.22489501751316
H          -1.11551699265806   -1.56301111010134   -1.75496579785336
O          -1.45363608779320    0.54878809865909    3.35990337713527
H          -0.94308191248374    1.65026578061773    2.35167929023459
H          -1.77638160502806    0.01576924029478    2.61727839556364
H          -0.60675487584512    0.13184484160179    3.62378574748314
N           1.28029561851246    0.38623252319151   -2.49959687022363
H           0.59725879041325    0.08443216000434   -3.19458178067336
H           2.04694896148346    0.89503839952886   -2.92522865847319
H           0.74757113124585    0.98420867743993   -1.79915042940908
