    26
        -50.46797336  Gyration_radius:  2.47233067495 Dipole_moment: 6.425
 S           0.83074375399271    0.08573657575852   -0.76697331497344
O           1.98758366934739   -0.07710192620761   -1.77553330160559
O           0.15580584530541   -1.20485109803934   -0.62665020359386
O           1.36645518307608    0.55907263342769    0.49569689527675
O          -0.09786741956576    1.05970496981836   -1.35601555760554
O          -2.02960853469398   -1.13896225976984    0.85768340097128
H          -1.23622083102492   -1.41561298828981    0.34919677263165
H          -2.52545073734268   -0.15997211404001   -0.09615595438269
O           1.95754582168236   -2.97178860701211    0.17761420992384
H           1.22560153962879   -2.37005742649400   -0.07733082904848
H           1.95484837466226   -3.68428275943094   -0.46355050533728
O          -1.19847765224546    2.83376698972219    0.31325567296324
H          -0.64874025532918    2.29624602540169   -0.29550726806241
H          -0.67992740055545    3.61207792051294    0.52182264898231
O           3.60101942251318   -0.85801399839989    0.04409304881090
H           2.74895338747994   -0.38954883119319   -1.19889297626444
H           3.09142570439160   -0.26655890370204    0.61877820002471
H           3.22667717622924   -1.75021539487511    0.20093175785715
O          -0.74380035900419    0.76380995456805    2.12633068462747
H           0.12324843604157    0.62992840860363    1.69589854095019
H          -1.06621453377006    1.59826444763077    1.75273675433328
H          -1.65225701971581   -0.54347627372347    1.55506987622157
N          -2.62373126057484    0.65541823553309   -0.85065144426002
H          -2.83741527583169    1.53814473508993   -0.38614407839599
H          -3.29409832592664    0.44563919147449   -1.58166015696073
H          -1.63609869877037    0.75263248363208   -1.23404288308624
