    26
        -50.45269176  Gyration_radius:  2.57776183874 Dipole_moment: 4.547
 S           0.48966820439707   -0.13607276108844    0.80738275319175
O           0.32843611577654   -1.64693824506415    0.65016948442944
O          -0.13835304054895    0.40686200156077   -0.48547020280613
O          -0.28522241446680    0.31538712195210    1.93648156793049
O           1.88224212384244    0.20743607164039    0.84086338236100
O          -2.62878978207184   -0.86774500820703   -0.88667100417057
H          -1.94525469948889   -0.18636366928509   -0.92298315867018
H          -2.24517816616635   -1.63014089108923   -1.37504339359109
O           0.77047599779808    2.77580068541832    1.91305772944324
H           0.29022121264547    1.94847995410698    2.09776153637198
H           1.69315748484769    2.59272738204908    2.10670699531380
O           3.09619370746328    1.93493770487114   -0.80575381284463
H           2.80381351172238    1.27015193243181   -0.15178847305805
H           3.55076177856443    1.45403023999091   -1.49886948410125
O          -2.00686131185754   -1.73948890911959    1.48814473815797
H          -1.87543648468310   -0.94624944804314    2.02572813069597
H          -2.45149444106873   -1.43961505952488    0.64266371200085
H          -0.64439736862916   -1.83120838326536    1.01708598104892
O           0.56961869401687    2.75803182785893   -0.71994498735161
H           1.52442518365590    2.65042222317236   -0.93354580676662
H           0.12564786037858    1.45158922483871   -0.64532549163286
H           0.55440447071622    3.01159312814449    0.23577107599154
N          -1.06623573373431   -2.90656095197808   -1.81864170925169
H          -1.39232227452779   -3.83465303961576   -1.57975581129407
H          -0.31198902396734   -2.67175971907148   -1.18140240929646
H          -0.68753161470442   -2.94065339271799   -2.75662135209591
