    26
        -50.45269164  Gyration_radius:  2.57768346992 Dipole_moment: 4.549
 S           0.71533514539104   -0.38660527123283    0.49959810432868
O          -0.63454966979918    0.13091210873118   -0.02108960544307
O           0.83928118229847   -1.78795709388238    0.18354651359129
O           1.72198675869604    0.41278267209277   -0.32563068588179
O           0.84791142839588   -0.05567360074434    1.88927097985939
O          -0.57505016165194    0.12980270941941   -2.84697461938237
H          -0.18684468126300    1.03081177045299   -2.91361956122300
H          -0.93013395304489    0.08332396119658   -1.94999674825170
O          -0.75382168032693   -2.56885076881181    2.18921992057125
H          -0.14667946630669   -2.49318904644701    1.43108771890141
H          -0.25187404732182   -2.28428226502672    2.95698845942505
O          -1.11489702436005    0.86213884885229    3.46243342230306
H          -1.04245133829264    1.81413022778565    3.54544340686632
H          -0.30037831009172    0.55908305620217    3.01540638056064
O          -2.36405789758730   -0.56120982294004    1.59608266525102
H          -1.99036200340214   -1.44317664202699    1.84145193880562
H          -2.15384469755465    0.01989905115998    2.36223283000129
H          -1.44935159186045   -0.15162650804619    0.64365613737551
O           1.66703206269139   -1.08184265062482   -2.30728716108482
H           0.81715388213856   -0.72915664531277   -2.70203853834769
H           1.82004128829880   -0.15297840339872   -1.21191049644614
H           1.42198796818938   -1.84249095560649   -1.76242772185290
N           0.82873135852994    2.44705378645340   -2.49135510855474
H           1.23388312124565    2.11422265069112   -1.62231436101756
H           0.39520865316304    3.34424040573549   -2.31384270838799
H           1.58574367382948    2.59063840532214   -3.14793119196112
