    26
        -50.45269175  Gyration_radius:  2.57800254098 Dipole_moment: 4.553
 S           0.60326192068320    0.44844783208510   -0.58676771230970
O           0.28461491170012    0.52283353369230   -1.98361948436789
O           0.27649163033921    1.77610320694799    0.09437343170510
O          -0.35826592942677   -0.53098941868821    0.10411366963459
O           1.96162786648048    0.07291170796813   -0.28214097318102
O          -1.36744403957537   -1.12839747264609   -3.29259730832376
H          -0.76286815215913   -0.43951485193915   -2.95358561708288
H          -2.22481793969287   -0.71273382015195   -3.39431518994314
O          -0.20918271348662   -0.12568719617170    2.89773754681828
H          -0.89522247171182    0.57880018154631    2.90778371127160
H          -0.33933096650553   -0.58032795495982    2.05560805242787
O           1.99852062451904   -1.93164759575199   -2.05762823576424
H           1.88650991713211   -1.45813504637636   -2.88573653663279
H           2.19006585828903   -1.25207124402834   -1.38630506146909
O          -0.43702274950056   -2.57951470387284   -1.26806803441994
H          -0.93020138897185   -2.26256285027412   -2.05870592066722
H           0.50897513550959   -2.59979125319680   -1.55534123702329
H          -0.43145369707263   -1.46763958713652   -0.44638238483023
O           1.72879476809572    1.40805232321489    2.07419419895956
H           0.87668456562801    1.76294397272759    0.96298160260993
H           1.10160167628744    0.80980199564698    2.57539479844319
H           2.31723890758237    0.82896358730864    1.57035824569893
N          -1.84485513016781    1.99303095620163    2.34855385672563
H          -1.66258382783431    2.82298189501889    2.89873491961596
H          -2.84637976761232    1.91330888582526    2.22635363330841
H          -1.42475900853396    2.13083292700225    1.43500603878131
