    26
        -50.45269172  Gyration_radius:  2.57778624488 Dipole_moment: 4.546
 S           0.58978977194964    0.53955186036612   -0.52098505147204
O           0.28143954957872    0.39656972517035   -1.92226994079285
O           1.75267770356610   -0.38224210809383   -0.15858061877318
O           0.87132179928283    1.87773912205813   -0.08702195098574
O          -0.56740024119324   -0.03349499986738    0.31168939034906
O          -0.66836866560866    3.33893702168604    1.54507313074417
H           0.00170593313933    2.92740535033220    0.96479933167014
H          -0.31462598852528    3.30750859474855    2.43512412656757
O          -1.38901258089525    2.48882612578325   -1.95781105206095
H          -0.79518606320471    3.21449764804811   -1.75009880122433
H          -0.81739797264825    1.72454387154308   -2.15362084279465
O          -0.62809073388309   -2.83809879503375   -0.03257621288954
H          -0.94312771558565   -1.94020534589245    0.13277237899956
H           0.00579565841098   -3.01689051600741    0.69760135708209
O           1.17694207404152   -2.16612992694980   -1.78661146989715
H           1.64247641493209   -1.19326750024718   -0.82588371913407
H           0.45333333809233   -2.59651350787008   -1.24471607621958
H           0.74119002448113   -1.53105139914940   -2.37167314306108
O          -2.35667452788586    1.66389596092142    0.35670295393336
H          -2.25074567247295    2.01254187260174   -0.56258800796746
H          -1.40175578025382    0.66487363362516    0.36300321072315
H          -1.95307988336918    2.35305375786519    0.93211924977597
N           1.41187125146755   -2.77704636722853    1.78448418668117
H           1.27178328072285   -2.70994373895127    2.78461209560121
H           1.73552580491783   -1.87536150453540    1.44936579650311
H           2.14961321094097   -3.44969883492016    1.61708969864035
