    26
        -50.47249925  Gyration_radius:  2.40855110789 Dipole_moment: 3.047
 S           0.70322387954446    0.35735884613335   -1.17118693342695
O           1.15577144601913   -0.25659408667639    0.07828299833559
O           0.00291055305472   -0.64983962697585   -1.97565378538564
O          -0.10391454351329    1.53356434135747   -0.94136492239397
O           1.96609230324241    0.81636509389290   -1.95752669920845
O           0.69986013153305    3.09534663777470    1.12009660501940
H           1.01651208461503    3.94262068227270    0.80560183836181
H           0.44538881562135    2.58803832992059    0.32724794977727
O          -2.24850072273772    1.00180816796188    0.60965590381367
H          -1.68515920707006    1.43913705070349   -0.05368231220204
H          -2.24193940574206   -0.42679405652963    0.04091344546925
O          -0.14653893422823   -2.16454711017444    1.41941932339431
H           0.47822142282409   -1.58471191148385    0.93597005458994
H          -0.28308539406797   -1.72013459068964    2.26215836556636
O          -0.15873357828899    0.73014090437896    2.24370806205547
H           0.09771816761630    1.65611802035438    2.34315706158658
H          -1.65491855970845    0.93836464264643    1.39573892538730
H           0.41203882335106    0.41655722743183    1.51686901826035
O           2.43577139354409   -1.77582761732142   -1.93158293842456
H           2.49805102104777   -1.85612473800807   -0.97482745276419
H           1.48712915193817   -1.71247723395660   -2.13045485991596
H           2.44148004708511   -0.02439997026500   -2.11237649992175
N          -1.94277237711260   -1.38033629460570   -0.37086825569009
H          -2.72675211112364   -1.92648037947260   -0.71007525799816
H          -1.39075443411403   -1.88191879378442    0.37344631285757
H          -1.25709994332986   -1.15523352488501   -1.14266593714330
