    26
        -50.47250012  Gyration_radius:  2.40892287466 Dipole_moment: 3.074
 S           0.36423585403483   -1.32524561146989   -0.33399745177901
O           0.31317471351532   -1.38503968161180    1.10887274029820
O          -0.66090744283189   -0.43909148544268   -0.88799009289682
O           1.68054881539697   -0.90543934955794   -0.82731334735392
O           0.08299133144681   -2.76276443744624   -0.86113374414810
O           0.55872568410250    1.05744406419791    2.23125033555169
H           0.59879111024826    0.08986080736991    2.12670279146167
H           1.40847044257383    1.47479611988239    1.01953377004850
O          -2.16986541877026   -1.35496915968486    2.19034567482795
H          -1.27641161393576   -1.44865901341549    1.81142599557286
H          -2.35210014138974   -2.17337191256600    2.65315261374719
O          -0.34295705811200    2.16738600024603   -1.38135966559755
H          -1.03056801178689    2.53482645925241   -0.81694304761675
H          -0.51632837011149    1.20299194744823   -1.38140700336756
O          -1.81695391545997    1.11445497174923    1.02121705411167
H          -0.36268328680313    1.27164817947050    1.94938900584917
H          -1.51089617550753    0.51298911518258    0.31640247016605
H          -2.31571787546039    0.53229413603786    1.60902669236549
O           0.55368706426346   -1.57849383329298   -3.16663499733027
H          -0.18144020099920   -0.96071889716847   -3.10517795573583
H           1.24404682163893   -1.22653407214149   -2.58118323002321
H           0.16976130249099   -2.65808663632130   -1.82984697438971
N           1.82683202213681    1.57237252644566    0.02769982103716
H           2.70425780469711    2.08029197958564    0.01833885511679
H           1.09133812861516    2.02186342068618   -0.57817550456566
H           1.93996841596646    0.58519435257489   -0.33219480533625
