    26
        -50.47250017  Gyration_radius:  2.40902987702 Dipole_moment: 3.074
 S           1.39163164409571   -0.00435007487020   -0.25299904251295
O           0.97981852923500   -1.26148367466201   -0.83453098381257
O           0.63313038278254    0.32121853255994    0.95598827002813
O           2.88687149573617   -0.15626049328500    0.15237570335525
O           1.28483682414913    1.10918877750472   -1.20211967829510
O          -1.65665568094149   -1.29123030997937   -1.41230595824638
H          -0.70774254559779   -1.50707818869147   -1.45395795164515
H          -1.57694735732912    0.22892234812149   -1.63050946099471
O           0.35586715184855   -3.21737147249125    0.93192364734104
H           0.96108585382499   -3.95547448145673    0.85372149724722
H           0.65508868774641   -2.54987122205756    0.28718295952501
O          -1.63119309164995    1.73764317581485    1.02143973210605
H          -0.74021841789734    1.34352136831754    1.12623543133282
H          -2.22677511104947    1.09267052736407    1.41597505010439
O           2.55898408277615    2.37918795920426    0.78716979723729
H           2.10709761326554    2.29457721006101   -0.06834002935542
H           1.88505917272872    2.22292588748253    1.45591653320296
H           3.10789859611134    0.73168790424610    0.49820620281766
O          -1.55764866515007   -1.26174423720400    1.25246641796386
H          -1.24717911316498   -2.16188031009575    1.41552911594409
H          -0.73436485613302   -0.73777539626945    1.25007529187075
H          -1.85959301927711   -1.37412763017363   -0.44989839817339
N          -1.30888675520320    1.27436310546007   -1.57260299023482
H          -1.61040852206060    1.62154312055855   -0.62466059826859
H          -1.69738436204548    1.82344489378201   -2.33124295321817
H          -0.25237251678874    1.29775269076212   -1.57103760531848
