    26
        -50.47250022  Gyration_radius:  2.40898399048 Dipole_moment: 3.074
 S          -0.40632654807133    1.25181972695723   -0.51817481039774
O          -0.73001088070921    1.39092540557698    0.88324117775826
O           0.97526667888210    1.64825764954964   -0.81196953071381
O          -0.62823549920066   -0.11077337785355   -1.00507708001697
O          -1.36123457428477    2.19712036004783   -1.30400224607074
O           1.19814117506337   -2.06080717955202   -1.02147749370922
H           0.75820576314927   -2.71363049201008   -0.46774457930192
H           0.50892931882150   -1.38757802138836   -1.19987994382066
O          -2.89266554741933   -0.00516596923231    1.72502143817338
H          -2.16349853500796    0.56478017270154    1.41800220955521
H          -3.58501638166903    0.58413327095674    2.02614000683102
O           0.66779586904770   -0.33356118368928    2.41898529658511
H           0.16604907857752    0.45898068357341    2.15650440422599
H           1.79682333744937   -0.27077204870934    1.37674135194444
O           0.09066665097080    1.33090434686669   -3.32401747376246
H           0.74406913510892    1.50286382056246   -2.62632317304394
H          -0.15685577299285    0.40599508491372   -3.22861219522248
H          -1.06422252738072    2.08321565562041   -2.22908262997149
O          -0.99935577240739   -1.88005937854872    1.02595203686084
H          -1.83318748928424   -1.65599183524528    1.45925349759135
H          -0.97505655132764   -1.27529393976364    0.26044876911302
H           0.09856781275966   -1.07212630684871    2.09529463159034
N           2.35891013656813   -0.18636336196813    0.45744612717741
H           1.94860239535851    0.64369650094446   -0.05198561010405
H           2.12864348019836   -1.03169989471074   -0.12773226063974
H           3.35499525779012   -0.07886967876518    0.61304805934442
