    26
        -50.47249980  Gyration_radius:  2.4089652347 Dipole_moment: 3.060
 S           1.09640625927025   -0.26459225673183   -0.85215866242288
O           1.94308882546159    0.72151897463676   -0.17166040798949
O           0.15792388047259    0.35292131883385   -1.76087851041995
O           2.01480278818469   -1.19012397818457   -1.70260854732336
O           0.42994212080555   -1.09769010140872    0.15008745727779
O          -1.95409648670264   -1.18482478654380   -2.47275682357279
H          -1.92999133003039   -1.38871030898431   -3.40825224961302
H          -1.15919584621397   -0.65059409382196   -2.28938011324374
O          -0.39667522842222   -0.26229731555992    2.54907537976908
H          -1.33786813484403   -0.45230113413906    2.48264300026175
H          -0.00278811141864   -0.70320273946055    1.76764494856840
O          -1.68179431494076    1.83742930928975   -0.45759813363804
H          -1.09816813275839    1.52245398436680   -1.17097571178639
H          -0.62757457958112    2.09952836745579    0.63046476290973
O          -2.25525837858558   -0.67757973796566    0.21839423948770
H          -1.31700717122808   -0.94114335233327    0.16619133000677
H          -2.12433583424953    1.00937369344629   -0.15297046142614
H          -2.62126067862651   -0.99386713703995   -0.61780000087830
O           3.18344668445030   -1.51405935437663    0.63591205487523
H           3.00360333077481   -0.56040811124560    0.59463692938595
H           2.42270499811702   -1.90564413087129    1.07589021690623
H           2.64268298470180   -1.54018818169381   -1.03917220900326
N           0.20427947787526    2.00995385424715    1.31480520935537
H           1.00578298707244    1.62961933689664    0.74070225414126
H          -0.04218185282496    1.25618518318579    2.00846827688890
H           0.44353172323000    2.88824269801433    1.76129577149683
