    26
        -50.47250018  Gyration_radius:  2.40906570753 Dipole_moment: 3.072
 S          -0.98705567201127   -0.36473945137714    0.94514546734254
O          -1.79079519216087   -0.02919903077700   -0.20789156587366
O           0.27506645983888   -1.00606033163000    0.57272205578501
O          -0.70278249009554    0.80451965033656    1.78440956340505
O          -1.80460350752003   -1.38366252083655    1.79153842166274
O          -0.46324508215553    1.56844647436697   -1.93188301602998
H           0.31528545769698    2.13558928240975   -0.73288888841190
H          -1.20251102172128    1.14854437323024   -1.45655261968581
O          -1.73956011736337   -1.82963644932145   -2.23055744030852
H          -1.83065726008797   -1.21517894509390   -1.47893203544004
H          -2.60557173908184   -2.21503281600733   -2.36795739981793
O           2.57715529294185    0.26791905200594    0.11013153045640
H           1.83576342634723   -0.30267880522898    0.40152126267955
H           2.74220341594777    0.00084169684282   -0.79967649286000
O           0.80119813102698   -0.77457911377232   -2.08461849814083
H           0.13658388207056   -1.29004638631854   -2.55976967043764
H           0.08330363710929    0.79695022962942   -2.21524866771882
H           0.61329503830107   -0.97514549823152   -1.14822807545152
O           0.26668456076571   -1.10727276590139    3.39563808081747
H           0.07339733276005   -0.20037305045659    3.10662813632727
H          -1.22601388586337   -1.53485460456987    2.56567677417956
H           0.91724805953423   -1.44737530135395    2.77370268645650
N           0.82080667502397    2.25582727634230    0.21475623112143
H           0.18296966212722    1.81845307163030    0.93496875764180
H           1.02656943085831    3.22464633259035    0.43151835185294
H           1.68526547570782    1.65409763148004    0.18584705045051
