    26
        -50.47249962  Gyration_radius:  2.40851443454 Dipole_moment: 3.056
 S           0.16372187459474    1.01497387619734   -0.96913693499872
O          -1.03158872801646    0.31252319045253   -0.49916092450570
O          -0.30586108484698    2.24927492153295   -1.79343700431816
O           0.96832296538384    1.51495640281843    0.12202060027022
O           0.92228405243030    0.13021110766548   -1.86007211553894
O          -1.18322714620254   -2.30723627540095    0.00314464001549
H          -1.42798649073999   -2.29036123311607    0.93382109528176
H          -1.27914741820630   -1.37769633477523   -0.29155053157056
O           1.70874388302777   -0.45089666374325    1.81700695048759
H           1.67013619839076   -1.42304245489395    0.62627871871062
H           1.72563689644936    0.39333228375663    1.33150342616572
O          -0.42431401391400    2.48040322690892    2.23456902411103
H          -0.28860448441932    3.42330756212079    2.33257136431165
H           0.08919086956030    2.21107935475553    1.45065362575417
O          -1.32572415098521    0.34978494991222   -3.30684251267902
H          -0.80562549422912    1.84076133859101   -2.52847452032019
H          -0.44087940281470    0.01728895218795   -3.08389630422619
H          -1.91500334601627   -0.00116107057646   -2.63199570714993
O          -0.92606655949381   -0.22808571152273    2.16323195812649
H          -0.96196734341383    0.61497218443116    2.63342555045582
H          -1.06108306602563    0.02915426978872    1.23157299964607
H           0.78748328884299   -0.48401084185096    2.16975342628531
N           1.42566453687163   -1.92152005837606   -0.30112231738818
H           1.35305318620665   -1.15586884958174   -1.02583155091332
H           0.45497644188622   -2.31748062975839   -0.19583734882005
H           2.10786453567354   -2.62466348751864   -0.56219560719097
