    26
        -50.47250021  Gyration_radius:  2.40898961509 Dipole_moment: 3.079
 S           0.80152076570217    0.08609115652986   -1.16176574695234
O           0.03109989761659   -1.10887186905243   -1.41960066066567
O           0.11627805892107    1.29960419844396   -1.61991601465817
O           1.13960947133831    0.23177703744972    0.25510246907464
O           2.13388527837818   -0.04896163032382   -1.95540397971325
O          -2.23784167828362   -1.18334199205795    0.04055067460026
H          -1.61028154637553   -1.35158975883638   -0.68514883369331
H          -2.25244300809823    0.35401567020372    0.00636809929074
O           0.73712988440358   -3.28684544084394    0.02748742182666
H           1.06355016723932   -3.98445120670052   -0.54164186576466
H           0.52801951184252   -2.53436766529938   -0.55632825989557
O          -0.33283956587609    1.53136631254919    2.06606569928504
H           0.34782595047049    1.16623533620413    1.46310184938389
H          -0.50899745384975    0.81888424888623    2.68869486078295
O           2.49101147499269    2.37564771288631   -0.98922663789523
H           2.58333875540107    0.79957607124683   -1.76879663521402
H           1.56293350005818    2.37507475985885   -1.27537134279587
H           2.47997513086016    2.11114690126361   -0.06417265858280
O          -0.28153349286962   -1.46876166739501    1.83013812306137
H           0.32562037392511   -0.91294351801943    1.30595098563298
H          -1.70458795517573   -1.38929126087402    0.84523515402326
H           0.00402979264690   -2.36764646651065    1.62131314440167
N          -1.96524991864312    1.39557170551321   -0.02297283277545
H          -1.21806756436773    1.46419387592705   -0.76713850932798
H          -1.48846442473073    1.61357343400706    0.89097147328793
H          -2.74552140553434    2.01431403493525   -0.21349597672719
