    26
        -50.45542420  Gyration_radius:  2.55354040815 Dipole_moment: 4.229
 S          -0.64189182710101   -0.84278271763419    0.20278670187543
O           0.29353966596975   -0.29897201898673   -0.81448208461472
O          -1.87384419990848   -0.07465614778056    0.18829958191913
O          -0.98047149221462   -2.28021682717601   -0.23490061460391
O          -0.00047297046309   -0.87469211953325    1.50425228337780
O           0.36662971160905    3.12246092874315    0.75927421773928
H          -0.16416455843560    2.55749978128335    1.39256944680520
H           1.27221227539256    3.09632445211060    1.07304345220012
O          -2.55601935956860    1.70127284421723   -1.56649064471139
H          -2.94213807370454    1.25147834854180   -2.32026080022183
H          -2.43922280629802    1.01326528983350   -0.86116042125907
O          -0.93670339577334    1.46142384858692    2.28133338617678
H          -0.50382503118352    0.59072852543907    2.15247086291224
H          -1.81622734922094    1.33511900032022    1.91121125491006
O           0.97377546897974   -3.32863161031366    1.01001841066816
H          -0.26775541269957   -2.85045602027569    0.19990113128187
H           1.69539735072054   -3.05788489709942    0.39055897048501
H           0.86167039217075   -2.57719110977302    1.61183253462428
O          -0.04224584642334    2.04311296120351   -1.49178371297655
H           0.15189910543842    1.01664528298858   -1.24128429150580
H          -1.05940203719606    2.05596052472546   -1.62309001874042
H           0.14431973793189    2.56284722918427   -0.61466648438135
N           2.54944481136941   -2.09502550844387   -0.78963813611853
H           1.81883941736305   -1.38998919789665   -0.88687091134401
H           2.69062218957393   -2.51748244046203   -1.69851288709746
H           3.40603421365928   -1.62015841179696   -0.53441120739863
