    26
        -50.45396369  Gyration_radius:  2.6151408317 Dipole_moment: 3.034
 S          -0.88727271575645   -0.01813893725551    0.07081828449123
O           0.25361048532269   -0.94063160170180   -0.36107288416145
O          -0.38882682754557    1.39802397948990   -0.23838057286195
O          -2.04343452846998   -0.28295432741022   -0.74855416481463
O          -1.06793187592641   -0.16781831731386    1.48605835688378
O          -1.18318812889870    1.11271354845669   -2.90381091504421
H          -0.74258859346747    1.84666299164233   -2.46761700583761
H          -1.74551857265268    0.70836562250673   -2.22149717039121
O          -2.03579776648571   -2.48397768381537   -2.34036518018134
H          -2.22479682159243   -3.26798082994506   -1.82305692675706
H          -2.23710818701590   -1.71866304719064   -1.77259001024104
O           1.28273035759235   -1.31690662438090    2.24273285445955
H           0.37517300802172   -0.98562480641158    2.13850661858333
H           1.49088034373510   -1.72215680388232    1.39704473093812
O           0.10500148535123    2.25225507392777    2.02799513795551
H           1.05718443558937    1.96341092117430    2.23695783901303
H          -0.14292145800730    1.85312662446861    0.68746791102629
H          -0.46180953454875    1.59634141736099    2.45322892009463
O           0.22630700504452   -1.13393073198007   -2.83326269336289
H          -0.49431745175997   -1.79293639258235   -2.91293570856831
H          -0.18801060399298   -0.27533152572271   -3.09037673289370
H           0.30807398293503   -1.02635050631762   -1.42776526053827
N           2.47361675557845    1.26080715027904    2.54959948956621
H           2.20879291328792    0.27194078436020    2.53241764440214
H           2.86444018617296    1.46437598761493    3.46033327941461
H           3.19771209747949    1.40537803462287    1.85812418883602
