    26
        -50.45396368  Gyration_radius:  2.61541777159 Dipole_moment: 3.036
 S           0.44083028696748    0.48228673780823    0.60394675831703
O           0.84888158974790   -0.99369030673719    0.67146602646992
O          -0.58161312507712    0.74512316048870    1.57525100117306
O           1.63169405867681    1.28885996069227    0.70132428292686
O          -0.17034056612763    0.65897364180100   -0.78683725696212
O           3.23350051847310   -0.41219099090733   -0.66744277623483
H           2.88824971284945   -1.25522507525454   -0.36222743464326
H           2.90198054238761    0.24601700564328   -0.03332129063928
O           2.13237779193822    3.11390767740041   -1.24715426529448
H           1.59426360989361    3.89564243914442   -1.11563342071910
H           2.05939976668839    2.58359653803892   -0.43347920092265
O          -2.85216812123031    0.51325803611012    0.08893857965241
H          -2.45628253232548    0.72484783177162   -0.76032694011689
H          -2.15470518810032    0.70381728708881    0.73818665946226
O          -0.87822722473296   -1.91386942766009    2.18170471306329
H          -1.09216230816224   -1.04623429184745    2.54741603127702
H          -1.66769120095334   -2.16073007087575    1.59048573037301
H           0.15245333735107   -1.48307400221118    1.30412050568906
O           1.66380281679979    0.76642563678479   -2.45237121056541
H           2.36859457404430    0.24438179689449   -1.99873210556132
H           0.58292420785481    0.67263701023147   -1.54889293602348
H           1.91968413718118    1.70242354283336   -2.31675909900418
N          -2.93140267503537   -2.29578760081866    0.59918225020723
H          -3.08574426100840   -1.31589522766065    0.34561040020744
H          -3.77915781088094   -2.64575282235282    1.02639068947063
H          -2.76914194722893   -2.81974845640116   -0.25084570160209
