    26
        -50.45396366  Gyration_radius:  2.6156096433 Dipole_moment: 3.036
 S          -0.61011307818235   -0.32338016503690   -0.56066325961460
O           0.20872759675891   -0.94927882587120   -1.55851871850658
O          -0.01967874413172   -0.65244494137984    0.81123433992462
O          -0.49819074312175    1.20047474000738   -0.68350095845385
O          -2.00695090627476   -0.67966607494194   -0.57033561942192
O           2.50218281563860   -1.45278013486035   -0.17833413699855
H           2.10520935719491   -1.48922253708161    0.69564309510962
H           1.74693366346472   -1.41670660970129   -0.78868239649650
O          -2.86210028043960    1.50738623781734    0.77783867404081
H          -2.26953046298798    2.17268799259740    0.41824689105835
H          -2.80766965130911    0.75578682796189    0.16350518710890
O          -2.98832424540673   -2.16241851455958    1.48320138317479
H          -2.75325240889607   -3.08413876120403    1.36846416886329
H          -2.78489330949426   -1.71491756615198    0.64239896291872
O          -1.68850764627167   -0.07702816573080    2.55288244671401
H          -2.25276736629488   -0.87403163234781    2.47326820535426
H          -0.69056457008308   -0.38499702468698    1.60297123896758
H          -2.19891082077127    0.63883285079875    2.10338468298696
O           1.35161775069841    1.42959444364340   -2.30708346017731
H           0.28640487198898    1.40334501746836   -1.36755700186604
H           2.20956170310440    1.41289639871511   -1.76186687620552
H           1.23949442934553    0.52933293079776   -2.63766258486029
N           3.49766971648474    1.14330535706284   -0.83121094039041
H           4.38887128769198    1.17010025922693   -1.30945941513816
H           3.32581894767665    0.17819088296402   -0.53570633082537
H           3.56896209359728    1.71907699449663   -0.00245758725983
