    26
        -50.45396344  Gyration_radius:  2.61605972943 Dipole_moment: 3.048
 S          -0.55568443181083    0.35030742691475    0.59763566851453
O          -0.62499145729124   -0.45475791510080   -0.70089341750585
O           0.72822248873160    1.17940481914026    0.47966559155321
O          -1.67782325062195    1.25356736801087    0.65284838341464
O          -0.43458216857924   -0.57415246273596    1.68785034317457
O          -3.68807847283112    0.94731606700680   -1.14828514351278
H          -4.25700660723986    0.22139387519354   -0.88881072145198
H          -3.11065919403657    1.13631170261452   -0.38705829768627
O           0.38753671693486   -2.84100772139379    0.42191435116327
H           0.03307075239393   -2.15612431567843    1.01312774390440
H           0.01501932896088   -2.63382257572739   -0.43892507125193
O          -0.63198516098115    3.10069139817987   -1.02873982000838
H          -1.11773910431615    2.67254471209314   -0.30350466592343
H           0.29347775929108    3.05824018787282   -0.77434314083070
O           2.22008995285904    0.00762649814116    2.06420160307024
H           1.44406105057161    0.74466960271408    1.13048239174613
H           1.48254607447783   -0.40425467615588    2.53177741830447
H           2.65932521921798   -0.74271398184081    1.53713647158948
O          -1.38959427742668    1.04345051866599   -2.52329133256365
H          -0.91498278648511    0.15971024520584   -1.52944648859262
H          -2.34855065382574    1.02749038829481   -2.32336458072087
H          -1.07838201484324    1.92149832443101   -2.19617178638143
N           3.11300556425448   -2.02614643438515    0.67467842442481
H           2.21291263464052   -2.49222112241910    0.53007350585849
H           3.72645443136118   -2.67260400548589    1.15365275501832
H           3.51433760660258   -1.82641790356418   -0.23221020532328
