    26
        -50.46195501  Gyration_radius:  2.47303879281 Dipole_moment: 4.185
 S           0.11929194808790   -0.59716611894132    0.73928265724879
O           0.52496117759898    0.63799698872018    0.03601272052696
O           1.41585087051559   -1.19894054927132    1.33906611768372
O          -0.80862709069183   -0.30645377262215    1.81200560192285
O          -0.37795432176779   -1.56645739802960   -0.22215891267818
O           1.49494555017602    2.36407671916123    1.81813798387663
H           2.28789311361926    2.73003263148729    1.42334889061445
H           1.06983654187466    1.81654693462333    1.12644306630948
O          -0.05520134066678    0.63563821504673   -2.40196311931959
H           0.21557765623035    0.78795302902204   -1.42121013228895
H           0.49403067840968   -0.25571671515835   -2.62734689397541
O          -2.69948598028398    0.97054373105701    0.46501993423096
H          -1.99542987559817    0.55485938481629    1.00612458308772
H          -3.48678997254092    0.97729223301244    1.01243780118759
O          -2.22720279292337   -0.41622310661726   -1.75099811428411
H          -2.59944405564535    0.18746844281074   -1.07132706843126
H          -1.04460493526320    0.29076595696853   -2.28436696878268
H          -1.72067902614929   -1.06726374906636   -1.22238633709847
O           1.25874064173026    0.24088078083392    3.44686530320043
H           1.45748333873068    1.12544727084767    3.07666942324094
H           0.30276183764267    0.13448645867083    3.32988493251535
H           1.51663317335152   -0.71903121439075    2.21599520450853
N           1.13546082943456   -1.59135763502968   -2.54121090262462
H           0.70830450941713   -1.84352190788801   -1.64208836121664
H           2.14093966488645   -1.60745666648833   -2.43235803467991
H           0.87270784982493   -2.28439994357585   -3.22987939477455
