    26
        -50.46195502  Gyration_radius:  2.47292310164 Dipole_moment: 4.182
 S          -0.82006811920147    0.02347915572699    0.49455770010033
O          -1.25483625642758   -1.30643859409146    0.86687286589765
O           0.65484133313304    0.12035550022999    0.48991307639036
O          -1.34403512975655    0.47788313986253   -0.78223227189631
O          -1.31650926975958    1.03595312289074    1.55829960768357
O           0.02759051862792   -2.74402093958390   -0.95238556073615
H          -0.38556023046274   -3.60901172528175   -0.97798639901815
H          -0.41576732944353   -2.25205858098102   -0.22945472931438
O           1.60752038360732    0.74894878064835   -1.74112681173024
H           1.36388811293989    0.46022515310048   -0.78419324220842
H           1.05846087353485    1.66498728040316   -1.82205824496618
O           1.57589688781554   -0.65652363087921    2.86584613947451
H           1.31330070941888   -0.44604702765462    1.94621564740709
H           2.25032765426889   -0.01951167710373    3.10651842679559
O          -0.08211280377155   -0.79185745310254   -2.75093385679639
H           1.03389724095687    0.06866827934854   -2.30663928820458
H           0.05518008309922   -1.64625083432806   -2.28607673198290
H          -0.76792564078734   -0.34779087622119   -2.21029968682205
O          -1.04248674301304   -0.64399124870885    3.46722898182941
H          -0.06639696765786   -0.70645469117537    3.51483147452181
H          -1.26814020670545    0.51901302048605    2.41843889363469
H          -1.29828495305713   -1.29685873982435    2.79845974713873
N           0.00647104510299    2.70662333722662   -1.71854321800722
H           0.16988555639635    3.45468714419512   -1.05763890346499
H          -0.70832263422549    2.08067740825933   -1.32891130566860
H          -0.34681412464687    3.10531470656464   -2.57870232004328
