    26
        -50.46243648  Gyration_radius:  2.53475997048 Dipole_moment: 5.578
 S           0.30024670843933    0.39461885145844   -1.00732163413373
O          -0.11184829238503   -0.79865627099008   -0.23395913994021
O          -0.47257165750091    0.33702244662867   -2.35435359680042
O          -0.12648329696869    1.60875948276429   -0.34466453806551
O           1.72824610759780    0.36044437659610   -1.26151264195815
O           1.93269634989521   -2.25281667071088   -1.46393844597615
H           1.23521666687986   -2.43674409557160   -0.82607898437117
H           2.07961373905313   -1.28534243253891   -1.37889249135300
O           1.57636167054563    0.09583282486314    1.52610318588013
H           2.11033403964191    0.55029746149590    0.86390538947064
H           0.93427185685793   -0.40757955332764    0.97471847675118
O          -2.54762843918841   -0.73260830646991    0.73589816100675
H          -1.63129137121412   -0.83200217268993    0.38195412112977
H          -3.13132489259776   -0.92061677369306   -0.00086819795949
O           0.56834746611897   -1.67172168781176   -3.64259060797093
H           1.20414584165043   -1.30732811805302   -4.26210466357792
H           1.10093155704261   -2.06094058048179   -2.90213783082565
H          -0.13731070332432   -0.44274862485585   -2.87908015399889
O          -2.04158175383339    1.78202674669686    1.36023116094183
H          -1.03252091625780    1.62158531909023    2.33414398379534
H          -1.41571330821270    1.87359267841726    0.59457800945332
H          -2.42529301222233    0.88157809447360    1.22709002233290
N          -0.13539268904974    1.45793788977923    3.01136020894224
H           0.59737652564612    0.95901596981864    2.41723109152919
H          -0.38532626906160    0.87459109812247    3.80343872075183
H           0.22649806245619    2.35180205697757    3.32685040494799
