    26
        -50.46972954  Gyration_radius:  2.43079166779 Dipole_moment: 5.128
 S           0.21374269807061   -1.41791202507135   -0.64149999177066
O           0.19622156845808   -1.82791879070278   -2.02108513885967
O          -0.72135283037576   -0.13520496070572   -0.60188347571225
O          -0.31697039499576   -2.36560250984099    0.30919329324942
O           1.53733610733319   -0.91409245332072   -0.22198105554117
O          -2.31838152327970   -1.59653268439145    1.86470429234563
H          -3.12600246423795   -2.01965799550272    1.57266758478363
H          -1.60084406868868   -1.96831035761343    1.30516483649189
O           1.17668630116623   -1.06699298524196    2.38703940274158
H           1.48422479467726   -1.05653778903990    1.45708701378197
H           0.72211194644864   -1.90916904238535    2.48103931431163
O          -0.07204096322659    2.77884054419581    0.40220662047991
H          -0.26822900463646    2.12529456863077    1.09730282170412
H          -0.92105782903035    3.02483467261525    0.03016832319523
O           0.13394545998803    0.42025087720615   -3.30637499385664
H           0.99722807869310    1.17680943862148   -2.18233778104077
H           0.19819021184005   -0.49918787602527   -2.93426810112892
H          -0.80368071592740    0.62239695519278   -3.28695948654818
O          -0.79260038970787    0.60219168273056    1.90179448409394
H          -0.78549238792745    0.14743783784150    0.35049379374858
H          -1.55000600807970    0.03156379527045    2.12298973534598
H          -0.00674394874018    0.09516020233994    2.23544700918668
N           1.54318239037018    1.41604084988703   -1.30495422003381
H           2.43519983176921    1.84742836244790   -1.52245556246791
H           1.67663863007464    0.46800039514412   -0.82025110369108
H           0.96869450998437    2.02086929773156   -0.67324759481666
