    26
        -50.46195502  Gyration_radius:  2.47325777889 Dipole_moment: 4.189
 S           0.87641199366026   -0.23247763163414    0.30898922031709
O           1.68459172390626    0.94526768486976    0.54601781559394
O           1.33290425342106   -1.36229404444237    1.26708613887254
O          -0.54502547941422    0.02466894118131    0.62218981712479
O           0.99188342942434   -0.76360248932880   -1.03851277224612
O          -2.07344820882480   -0.29345879103922   -1.33815706678057
H          -1.79020304789306   -1.31136175048194   -1.51266924074268
H          -1.56956013625842   -0.09901734910023   -0.46250308056932
O           0.42967941859404    2.69893370869166   -0.99334859838731
H           0.88454527855166    2.09509647852664   -0.36898148608662
H           1.02639750597213    3.43657115796096   -1.13259486919743
O          -0.72681288666050    0.92847572577011    3.12161019628716
H          -1.46315089753069    0.45925864962039    3.51680823118065
H          -0.72436931914198    0.68862218137843    2.17221335161082
O          -0.31880221574008    0.82626693953960   -2.72211527763770
H          -0.14475379009123    1.67562065328718   -2.26012737321225
H           0.33950939744984    0.21607551387967   -2.32957418236586
H          -1.48742855617228    0.24573238151224   -2.02928078337278
O           1.88055854322733    0.28223966565059    3.14742042398717
H           1.59390879136918   -0.87195158979403    2.10435047754690
H           2.13472408692035    0.87380128834400    2.42327344825892
H           0.98048584539421    0.57273657311164    3.40136184600039
N          -1.02116782950297   -2.57700153407052   -1.61197151124554
H          -0.11114454805098   -2.15175264177216   -1.39862604149083
H          -0.96514153800088   -3.02294084394773   -2.51839893450654
H          -1.21459181460837   -3.28350882771216   -0.91445973894137
