    26
        -50.45538146  Gyration_radius:  2.5656183809 Dipole_moment: 4.101
 S          -0.04252427004703   -0.47390622386665   -0.93851503523858
O           0.73127222339105    0.47288061721988   -1.70375141425821
O          -1.13199792403178   -1.10464630386985   -1.83274528480262
O           0.74425675268223   -1.57943415894361   -0.39728485977093
O          -0.75436524626605    0.20175278129802    0.17463904414457
O           0.18820408126814   -2.84795105373844    1.78708986656983
H           0.46278893657264   -2.49789165958533    0.89965738512646
H          -0.55656181296224   -3.43023527074486    1.62632216703659
O           2.73146462019295    0.10244680920136    0.09011964278420
H           2.36018797177744    0.68848234744073   -0.58322438176378
H           2.24578036769553   -0.72664414500625   -0.06932830176256
O           2.13052139377365    0.48333175012866    2.60345055818938
H           2.40815670914487    0.44708946988453    1.64610730443341
H           2.76405483482327   -0.05289443981281    3.08458202063379
O          -1.35171375457870    0.93161742292018   -3.33977326524059
H          -0.41447779695836    1.06136197277077   -3.12949214418440
H          -1.34185566519636   -0.39343315164750   -2.52133121763890
H          -1.83277040443429    1.52322621110442   -2.70949093562119
O          -0.22877108421181   -0.43897919979052    2.48805414985490
H          -0.51193236222786   -0.11722082680968    1.49796179222437
H          -0.09386781245356   -1.44663193210646    2.36923372799169
H           0.71106925286821   -0.02783120425021    2.62371693474994
N          -2.27999081894509    2.24541204038823   -1.18440974335019
H          -1.92084056591758    3.17105914447525   -0.98692988966846
H          -1.76665959494625    1.58573989919654   -0.60050253977697
H          -3.24942803097982    2.22329909417167   -0.89415558066135
