    26
        -50.46195504  Gyration_radius:  2.4731387004 Dipole_moment: 4.185
 S          -0.83504570817456   -0.14034912434228   -0.44751509688945
O          -1.39476652566091    0.49971309695416   -1.74369472366540
O           0.63572933548409   -0.01779951414105   -0.52897913307638
O          -1.33229455077358    0.66314216040210    0.65626970368567
O          -1.24090940769403   -1.52904997633447   -0.39124115795832
O           0.13747620484158   -2.33718214581615    1.72242698511225
H          -0.25161366846508   -3.16142510675931    2.02042197017558
H          -0.34159775202207   -2.09066463588830    0.90327657306981
O           1.63843765526401    1.26219014289731    1.37800647488214
H           1.37376860798480    0.69796229942553    0.55945586869469
H           1.06570168227288    2.15045490424021    1.20518609132841
O           1.50480698344690   -1.44496034031705   -2.60372208969619
H           1.26515799991247   -0.97670955777950   -1.77770636431027
H           2.14896527832652   -0.89300319566223   -3.04976961028449
O          -1.13031151632047   -1.66655431463973   -3.07722855301985
H          -1.35802914371853   -0.24899380102313   -2.41267401133917
H          -0.15469636699014   -1.72049426411091   -3.14241596465200
H          -1.34464437820667   -2.09579906871010   -2.23537177638991
O           0.02683378688862    0.05952798198186    2.86270847916728
H           1.10268803285990    0.76985909887026    2.14110893208757
H          -0.68808668882527    0.30987168835250    2.24139685914751
H           0.17450895328405   -0.89180289393475    2.66730858245205
N          -0.01922900159760    3.09459351020006    0.83843639335114
H          -0.35725909717097    3.72369984054495    1.55510055010888
H          -0.72702626376489    2.36784622179844    0.67912245874322
H           0.10143553882077    3.61592702379417   -0.01990743071884
