    26
        -50.46195503  Gyration_radius:  2.47303451623 Dipole_moment: 4.185
 S           0.68746315639177   -0.39472251229471    0.53761822867379
O           1.34422688989867    0.10889521299679    1.84838276436479
O          -0.63515024759417    0.26071644727680    0.46087668295678
O           1.52896229683274    0.07315716412788   -0.55057914239004
O           0.55365679524465   -1.83516563481559    0.59763767351615
O          -0.94501958621281    1.64622149020220   -1.60426347630621
H          -0.09892941268562    2.27677843911804   -1.42097353554770
H          -0.97098653342415    1.09808356396973   -0.73405455382880
O          -2.12578299852900   -0.56654527891571    2.50788214337582
H          -2.55266530922252    0.21820218577073    2.85500376264982
H          -1.66775966855377   -0.29124862905069    1.68725981970051
O          -0.86230077072639   -2.26744400305153   -1.59983062955507
H          -0.78558862752972   -3.19952477003949   -1.81167721327331
H          -0.38921517482827   -2.14168198733224   -0.75033089444133
O           0.19646452397400   -1.68743266859211    3.26151909261309
H           0.98235563924355   -0.51353649685091    2.54913803836522
H          -0.73184156832490   -1.37735685800919    3.22873545150104
H           0.30019894573928   -2.23716255157044    2.47035004934437
O           0.21423168487795   -0.18503446773655   -2.84949237956521
H           0.92179378550567   -0.15862550312735   -2.17237360113616
H          -0.28962073217598   -0.99638646020029   -2.61965831905064
H          -0.57344976324533    0.92819858400035   -2.28107658516710
N           1.22711977877130    2.78971617276561   -0.99541946803697
H           1.60135119708814    1.87216548407290   -0.72599769320508
H           1.24308963732867    3.39180663423483   -0.18281392535873
H           1.82739607215260    3.18792643304798   -1.70586232020101
