    26
        -50.46243659  Gyration_radius:  2.53493440217 Dipole_moment: 5.578
 S           0.87555905291026   -0.05788971292216    0.70029878356522
O           0.87293092164932   -1.22435540569029    1.56315513514511
O           0.35696710907974   -0.41066019001118   -0.64074540959578
O           0.14163649469630    1.05842677279637    1.25754721189466
O           2.33415854543214    0.43716636243656    0.49432517455898
O          -1.78006977814873   -1.09791646376018    0.66614720171501
H          -1.06049803848859   -0.92838837184187    0.01555174785904
H          -1.29067187408912   -1.28483354461861    1.47596187847902
O           1.38752634405579   -2.98809411758317   -0.31759719056403
H           0.91533263406475   -2.50950478208915   -1.00693492052951
H           1.14746615839793   -2.51090019345078    0.50660336135060
O          -0.16762154355021    1.61543791306437   -2.22138233805495
H           0.02910516156026    0.80869494513282   -1.68732564071664
H           0.67906794274106    1.91927975254155   -2.55244871419946
O          -1.20408163266694    2.78228072132246   -0.09211744709152
H          -0.58086830199231    2.29661934678011    0.50957792689606
H          -0.88527874721399    2.53018663932374   -0.99242912024733
H          -2.31076924463406    1.94403617510726    0.16407929217929
O           3.67570464041818   -1.68655982495745   -0.19104109306283
H           2.89101116290579   -0.33413766646021    0.19355559421142
H           4.11708288016014   -2.00572745175274    0.59897149986229
H           2.91167155835747   -2.30008874446005   -0.34352742977488
N          -3.10765738850721    1.17488424854770    0.41571370169735
H          -2.59114327493975    0.25546577691452    0.57958520702936
H          -3.75829912955990    1.06655659149853   -0.35569593576633
H          -3.59826165263514    1.45002122413028    1.26017151315421
