    26
        -50.46243623  Gyration_radius:  2.53445214571 Dipole_moment: 5.581
 S          -0.76769228331470   -0.20172508122227    0.79375670952714
O           0.67526972453043   -0.17607294912749    0.46357566474998
O          -0.91020353594043    0.44058606980820    2.20165671352111
O          -1.51758613812190    0.63909222199233   -0.11515360690916
O          -1.25108001045403   -1.56917205711291    0.82927941259680
O           0.96955677438679   -2.64706852868974    1.73412957653891
H           0.08319643572465   -2.45735251153073    1.35578835254139
H           1.54899742335686   -2.02084326420469    1.28765549236219
O          -0.07846898307288   -1.37593492716469   -1.71310889220555
H           0.39148141442641   -0.96903941310363   -0.94928521204547
H          -0.86112138038601   -1.75807852110546   -1.29892872537776
O           1.65995371138443    2.19011334634785   -0.09338491675463
H           1.36047606181082    1.27554214626477    0.12704946314350
H           1.76443608976203    2.63783746822902    0.74773608100095
O          -0.54837234788671    2.58541266201190   -1.48504736270037
H          -0.39481906394123    1.63170682891878   -2.51445836236811
H          -1.06525022952137    1.98805082549980   -0.88310845006472
H           0.33259762031942    2.63926252208000   -1.04150621146274
O           0.16686768499117   -1.27566472653753    3.83656962249019
H           0.59090180191159   -1.87083498506613    3.16614296455093
H          -0.47935760309682   -0.16204817080478    2.87015461610178
H          -0.55064338503404   -1.78225642051497    4.22301274204100
N          -0.29985238698345    0.76751346883724   -3.24534848240897
H           0.55592599199397    0.84689253735044   -3.78523296098997
H          -1.10762900455815    0.74371332984830   -3.85887019492109
H          -0.26758437228968   -0.11963188100392   -2.65307402295233
