    26
        -50.46972954  Gyration_radius:  2.43086239047 Dipole_moment: 5.132
 S           0.20210912653087   -0.50689966667983   -1.47264331662269
O           0.00180827112494    0.77174818053505   -0.55277939178641
O          -0.53163171984859   -0.20039518456269   -2.67234388661796
O           1.62345458488379   -0.70363746767914   -1.63054425152455
O          -0.41394863781259   -1.60677504178113   -0.70282617385633
O          -1.15833431185187    0.96647894302125    2.36874655353623
H          -0.23293883165724    0.67056135879067    2.29936364797451
H          -1.13700724044138    1.91703067359292    2.24278367277210
O           1.65684660549699   -2.18988710991841    0.82395818311674
H           0.85519839331882   -2.15404391798835    0.26214831658270
H           2.38887612257048   -2.13853970784211    0.20248598830490
O           3.26783920485330    0.82433255235196   -0.22409971032279
H           3.67898911770706    1.46472814115615   -0.80520639639839
H           2.72796476285306    0.24142697672141   -0.80284837473121
O           1.38857110354423    0.30232479449953    1.60878586733707
H           1.50891597137125   -0.67800229956138    1.50629370432501
H           2.21190522247164    0.67783575860688    1.24904232207650
H           0.54628863582839    0.62621096232249    0.26788220977581
O          -2.58965374417261    1.10302835119966   -1.79092265855894
H          -1.87372882929744    0.58557139013532   -2.24632965169727
H          -2.62606093678165    0.27220470792517   -0.41626967406219
H          -2.23092864279564    1.98902916028221   -1.70850672335616
N          -2.40637891979879   -0.39626900122112    0.37743496986318
H          -1.63082414727202   -1.02128061824830   -0.02189199012687
H          -3.21822311379913   -0.94231984932457    0.64546740318020
H          -2.00910805701940    0.12553789366911    1.19281937082135
