    26
        -50.46243663  Gyration_radius:  2.53496954497 Dipole_moment: 5.578
 S          -0.96924777619607    0.44202161075990    0.35376521559933
O          -0.31111827204690   -0.39795115424390   -0.67246339080777
O          -1.25478865207810    1.75966842575589   -0.18241405348309
O          -2.29921082201747   -0.27187976749673    0.72324959400009
O          -0.17945007979488    0.48457736171546    1.56609749371806
O           0.71656640791833   -2.64969135019926    0.19471659206027
H           0.33350381249544   -1.83036385519181   -0.20124146944108
H          -0.02156982487030   -3.24990598498022    0.31189174571522
O           1.49369918819337    1.47001326783015   -0.65174591860989
H           0.90887025807350    0.69624243745896   -0.82220087024542
H           0.86852229603102    2.14605376007401   -0.36473381249616
O          -1.72250557703149    0.98204326179101   -2.65012139838337
H          -1.54391838858917    1.47655386025307   -1.82053553923719
H          -1.09217907898777    0.25449194782044   -2.62456744158880
O          -3.80386722604643   -0.02763915584567   -1.38761119841637
H          -3.11713931298613    0.30833487311762   -2.01928803290202
H          -2.90629014253794   -0.24029506342938   -0.06796752591465
H          -4.39641821687672    0.70947508015489   -1.22527573960830
O           1.57523401954774   -1.25774346725871    2.26694540302975
H           2.50580399810409   -0.39577129223113    1.64657142102828
H           0.80891094928662   -0.63017242379158    2.19620663057347
H           1.36212389551949   -1.94564753293866    1.59078256107190
N           3.14285238714566    0.36531863165492    1.09475778864920
H           2.48626433634240    0.86861257902641    0.42043915231819
H           3.87986399597241   -0.09579066828780    0.57099042937139
H           3.53548783543543    1.02944462848533    1.75375235399819
