    26
        -50.46243620  Gyration_radius:  2.53437947597 Dipole_moment: 5.578
 S          -1.04954682021422    0.00321310166547   -0.39686355593479
O          -2.06682415544213    0.30869263008597    0.59132783770835
O          -0.50530101281813    1.18498251915837   -1.03144749940874
O           0.02802567304516   -0.81021441678209    0.21050369716175
O          -1.66612634005564   -0.85849452427703   -1.53374265512018
O           0.29388483055680    1.22326892006994    1.80429856746448
H          -0.62492764975015    1.49714177426993    1.70041833534941
H           0.31569497342003    0.36106418479908    1.32889559874259
O          -1.85253112199686   -1.93615146085153    1.94332890140968
H          -0.90904792680524   -2.03725727291306    1.77947885241697
H          -2.05199085429032   -1.03168156896575    1.61657774690461
O           2.17896843476025   -1.10480065006799   -1.26083529953341
H           1.95519792940460   -1.75484458060263   -1.92885052926837
H           1.39294274475238   -1.05316698003364   -0.66563296163622
O           1.91890423602497    1.45771776839275   -1.83899961706187
H           0.93230824856933    1.40710363037214   -1.73693973330836
H           2.15016400124808    2.04534192126766   -0.57683812978714
H           2.20033096446343    0.51528196298171   -1.74679085611834
O          -2.91361224741693   -2.79026043996359   -0.31275444690369
H          -2.13081184879332   -1.63992350874839   -1.12265311251881
H          -2.55657839927997   -2.64151955116483    0.60042381895274
H          -3.84087293388581   -2.54603159821546   -0.27672081520524
N           2.20961007648833    2.47043358229236    0.47494925713829
H           1.40707765596619    2.02619824001782    1.02021027921706
H           2.09215154787718    3.47787821205631    0.44758346820867
H           3.09290998418264    2.22602810517021    0.91107285113624
