    26
        -50.45800462  Gyration_radius:  2.39561014843 Dipole_moment: 3.164
 S          -0.44868413990657    1.49706030566258    0.17519099734937
O          -1.45455811407014    1.56013788009641    1.23016707562955
O          -0.15094233386413    2.75293482909047   -0.45479191562249
O           0.84490378473079    0.99174894166135    0.92512147370213
O          -0.78122880628090    0.44418920778125   -0.79475762240852
O          -2.63282956627088   -1.27225675836426   -0.16372694307688
H          -1.95561293500109   -0.63537787731785   -0.50873379905186
H          -3.48867563143177   -0.89837485980213   -0.38078463791239
O           0.57472574715355   -1.45520525748633    2.21408850269930
H           1.00418702773502   -0.59148755067601    2.25290986704669
H           0.72109200008924   -1.75455677926957    1.25830994339502
O           0.79104345759819    1.73765117238180   -2.67406617737325
H           0.11350076857223    1.06273284968883   -2.77736529854286
H           0.43875554271870    2.31532460036571   -1.96028505130567
O           2.54678420645795    0.72839344273928   -1.02170153287595
H           3.25474030524872    1.37066272455640   -0.93957495579990
H           1.53378156264241    0.87725601344632    0.21705476316600
H           1.96330738006357    1.06151319455434   -1.75907068928863
O          -1.80290350014237   -0.69116709902593    2.18129740715386
H          -2.21380861063062   -1.10305032087830    1.34793597750428
H          -0.81528768691260   -1.08872347467387    2.27073337621753
H          -1.67002836745081    0.32006183662544    1.87907518798250
N           0.89299624642402   -1.84571606426508   -0.35768895615643
H           0.27829054788938   -1.09466030561820   -0.67043315897012
H           0.62562742898974   -2.69313718821594   -0.84098254059526
H           1.83082370566536   -1.59595348304681   -0.64792127287795
