    26
        -50.45800465  Gyration_radius:  2.39568915479 Dipole_moment: 3.163
 S           1.04900692492689   -0.85121952508443   -0.80538813581242
O           1.01344174393230   -1.78915408707932   -1.89246172570277
O           2.38372087920742   -0.53519277583557   -0.30787549874857
O           0.30079265182853    0.37953115415057   -1.09737837454424
O           0.33160837152146   -1.49974853911239    0.44190582384179
O           0.21493272258874    0.11621979376464    2.69991062563064
H           0.29372054199240   -0.79472136198579    2.39021356451129
H          -0.55013369699504    0.49134343143986    2.15378313496402
O          -1.32827795409391   -1.06808350795468   -2.80884846575014
H          -1.18658931536277   -0.12024903538861   -2.72667344371739
H          -0.43422284118143   -1.45159908480041   -2.66451408573344
O           1.25306899453740    2.63817166851529   -0.22277672165742
H           0.84479826310856    1.83532747888489   -0.63757795117104
H           1.90044590149679    2.96513300482824   -0.85000187467332
O          -2.08369298712918   -1.87730869462105   -0.44101649887502
H          -2.27316135370888   -2.81505531854460   -0.51333712794455
H          -0.60470156819938   -1.66751191537737    0.15168987950320
H          -1.93904067653496   -1.55777406188289   -1.37489766680869
O           2.21620093110726    1.07626340825313    1.55447183383883
H           1.39391884622023    0.71621348121337    2.13332830502522
H           2.37805396606659    0.33475802744067    0.80874770129267
H           1.87013478477077    1.85433997046987    0.99972580131990
N          -1.61528954790962    0.87111198602765    0.98260235368482
H          -2.05259656095661    1.78324541704207    0.98113417423141
H          -2.34130245376159    0.16975985383794    0.89761423646726
H          -1.03483656747093    0.79619924179360    0.14762014682290
