    26
        -50.45599934  Gyration_radius:  2.47909806461 Dipole_moment: 2.526
 S           1.35432008912151    0.48661570592554   -0.33685673927835
O           2.36120006463838    0.14620388634030    0.62606875837048
O           1.07098466111486   -0.56598259314631   -1.28621361580266
O           0.05186659079537    0.87522160845400    0.38495961208292
O           1.73479127443950    1.76499063145711   -1.05914276258786
O           1.11912699896200   -2.57037075885691    0.48293342928100
H           1.97698167259975   -2.44744418801254    0.89746870680313
H           1.12957354499438   -2.01164567809911   -0.31474651234269
O          -1.32499774367821    0.01773226583437   -2.38669985178018
H          -0.49727519865419   -0.40541956887078   -2.10386660654642
H          -1.93757124360228   -0.06046959279855   -1.61619494599768
O           1.62454992755874   -0.21011574975870    3.18719934033325
H           1.82191767710886    0.58257691732221    3.68793020742228
H           2.02488196985347   -0.08384478970464    2.30505718999455
O          -0.25009774806089    2.34588527587729   -2.47814245615067
H           0.03802814368979    2.47277984096540   -3.38522915435532
H          -0.77595284606352    1.47864410816146   -2.46854313425575
H           0.92038583431781    2.05978386834667   -1.63630060039104
O          -0.54800138220145   -1.06080504253567    1.87595292185632
H          -0.07783936508753   -1.79094759058153    1.40413538214713
H           0.05328701183250   -0.82905642184867    2.61252591227009
H          -0.26882837113759    0.09889562396524    0.99497017201817
N          -2.79911360353037   -0.10172945026552   -0.09871892545163
H          -2.61261601920235    0.82250953715609    0.27098459918277
H          -2.38857430256670   -0.76873737045477    0.54440022407620
H          -3.80102766725852   -0.24527048487012   -0.10393116089646
