    26
        -50.45599949  Gyration_radius:  2.47903990784 Dipole_moment: 2.528
 S           0.56639804884233   -0.63299486720132    1.21076808565359
O          -0.75608839150084   -0.20271412708933    0.55164258477438
O           0.37209479718227   -0.22184990074403    2.65777945353415
O           0.71527640277281   -2.05647996158056    1.11852173547201
O           1.65365224695773    0.11027882486388    0.61494299543737
O           1.90432827377370   -1.43421699629693   -1.55340746617245
H           2.02670806610357   -0.80234011054771   -0.82238678562993
H           2.00796902115210   -2.30601918134167   -1.16334118491088
O          -0.94110444022430   -3.41961506766774   -0.50265351279356
H          -0.29986126285583   -3.05077730949944    0.13548526468976
H          -1.64164469599595   -3.81452667984720    0.01824256036187
O           0.73626541326009    2.61849982795194    0.21374942076841
H           0.02577464475946    2.48021406246327   -0.45796064443716
H           1.25111461686062    1.79445450817840    0.21983343845945
O          -0.70724124507225   -1.09142803208477   -1.80222508597221
H           0.26902137087570   -1.16980570239103   -1.93440032895087
H          -0.99102615810912   -2.00276725610686   -1.58633349360525
H          -0.78378328291582   -0.51215103359837   -0.43860563274739
O          -0.15007528542508    2.23037430810490    2.59021705657009
H           0.11904202882964    0.78771659516187    2.67129787983304
H           0.44883073478814    2.69595957348427    3.17882223882604
H           0.13158493605199    2.47866635034793    1.64798721972764
N          -1.27216424617968    1.98646263224746   -1.51506845532663
H          -1.98846252117721    1.71301455380713   -0.85337305015334
H          -1.02488761212247    1.15938521502385   -2.04596681910348
H          -1.67172146063192    2.66265975436356   -2.15356749430509
