    26
        -50.45599947  Gyration_radius:  2.47909738798 Dipole_moment: 2.526
 S           0.09764480526655    1.47320206932122    0.08881964267947
O           0.85267448585634    0.21630226969982   -0.37888644327410
O           0.66633760910188    1.95430779244968    1.31443854013358
O           0.36047323478174    2.46163238854041   -1.03123676192409
O          -1.31314029297512    1.17041149756643    0.17598527110102
O          -1.20829528332346   -0.00427521814095    2.57571969261552
H          -0.77618332187078    0.66992870211596    3.10639232994269
H          -1.47278915997893    0.43977000893307    1.75020400381110
O          -1.88402898622194   -0.42525776507110   -1.92663789340786
H          -1.90212556651152    0.08298937611045   -1.09869687245950
H          -1.36044042029786   -1.23794018271433   -1.72555361361533
O           2.39637806968610    0.37652097619504    2.63628798975677
H           1.80845001593961    1.05153093282206    2.24503079084904
H           3.29241119478639    0.65801597633641    2.44663872465362
O          -0.44435940086778    1.33141053921017   -3.12057546547405
H          -1.05635724813640    1.91347892930307   -3.57727476312368
H           0.06981615940644    2.01498385021004   -1.92538036406889
H          -1.00376428192734    0.57274927722790   -2.74622320643169
O           0.75950764237740   -1.42658569097845    1.52512386149648
H           0.82173942994763   -0.51745010676002    0.35437090015699
H           1.49975238559251   -1.04703953381990    2.04042067550484
H          -0.04860100507094   -1.10089877978918    1.99159286555935
N          -0.24730790077216   -2.49643038113017   -1.25272705840204
H           0.63066403314914   -2.14717447853114   -1.61721322193561
H          -0.38616368639586   -3.43496451560583   -1.60547245446942
H          -0.15229253154082   -2.54921794348995   -0.24514717966745
