    26
        -50.45599948  Gyration_radius:  2.47909618695 Dipole_moment: 2.527
 S          -1.17101079352562    0.36087184379579   -0.82843484305218
O          -1.22527708608450    1.32079768035005   -2.00153369437838
O           0.26492349645201   -0.18818615717348   -0.90105850778100
O          -1.34039152785517    1.07406060174736    0.41745946492810
O          -2.11001613488285   -0.70605917292543   -1.02054196814908
O          -1.21381814903980   -3.23950897770986   -0.93105947186793
H          -1.65979419566452   -2.37410039352177   -1.01276777667373
H          -1.09655089404263   -3.56663960473027   -1.82397723801012
O           0.96986419492548    2.40073330273230    0.86001598980892
H           1.61647690265674    1.66537572960474    0.98756921413017
H           0.09235471944805    1.98947007205682    0.93072971254581
O          -1.78790031328058   -1.08632209942385    1.92806490202212
H          -1.72228553457647   -0.18842234856526    1.55654059659970
H          -2.50988004993354   -1.51026895174512    1.45694954921522
O           0.65743647279253    2.93571112767808   -1.62998668637271
H          -0.43481059521093    1.99074045413841   -1.90226263754343
H           0.31571301367517    3.83209290254837   -1.67042075373031
H           0.88958348244364    2.76663790740335   -0.65727219045249
O           0.41782543558287   -2.02707054913027    0.81013714509851
H           0.01075533036329   -2.72789677511486    0.26166199958450
H           0.40360157076940   -0.93266469445989   -0.19140521212245
H          -0.30732874683697   -1.75089254171653    1.42212905182933
N           2.60005515397832    0.22420265283061    1.02466777513134
H           3.49805546364983    0.25280067061236    1.49091081033221
H           2.75943515844066    0.05408151270753    0.03910047943463
H           2.08298364575727   -0.56954418199015    1.38478430947681
