    26
        -50.45599950  Gyration_radius:  2.4791007623 Dipole_moment: 2.527
 S           1.10472278486536   -0.81382328621767    0.55332901194135
O           2.47027401968024   -1.07210523004200   -0.05424014174337
O           0.13800741278807   -1.76199310922923    0.04733553837367
O           1.19893136771038   -0.78640774552565    1.98418181341348
O           0.75487567292880    0.58923744821227    0.02631732616471
O          -1.75403885894115   -1.24255070391408    1.86387153809518
H          -1.18703685937230   -1.62633709402233    1.17119164801148
H          -1.27462541418227   -1.36209333432890    2.68774639355430
O          -0.39491603106573   -1.02663601159361   -2.49597683723430
H          -0.39532630194289   -1.43695435452309   -1.61519100991620
H          -0.82836988146170   -0.14737036141293   -2.37732386853801
O           0.29756007142497    1.38414445853613    3.29059941035299
H           0.68121874334953    0.55704163209678    2.93976034600252
H           1.03772432898893    1.94849069873452    3.51799723068111
O           2.16102219120253   -0.80256997184758   -2.52853310186269
H           2.39222917862240   -0.93623808160646   -1.08329564539269
H           2.49262496304496   -1.58579789497577   -2.97410075412913
H           1.15126554970218   -0.83411213963568   -2.61817733993243
O          -1.36297365867140    1.28669551636744    1.19331645042256
H          -0.94187739690391    1.58986038381711    2.02300367929952
H          -0.13339838723001    0.92217212201154    0.44710681656825
H          -1.73143109925118    0.39878105781802    1.42254461172017
N          -1.42117523172138    1.43617542668917   -1.94464936123644
H          -0.56181021502574    1.96511192349298   -1.85851023159321
H          -1.86155532244976    1.43143869607723   -1.03191015751029
H          -2.03192163608514    1.92583995502298   -2.58639337551410
