    26
        -50.46972958  Gyration_radius:  2.43072760805 Dipole_moment: 5.134
 S           1.27037422789214    0.67601994816470    0.62936553679454
O           0.74237406271679   -0.53226816415014   -0.25533252686210
O           2.52900749364033    1.03248398706591    0.02898091192423
O           0.24699299097464    1.72670560763067    0.45471766385528
O           1.32684373462752    0.21493770836647    1.99609007582792
O           0.34800223515824   -2.18294266478887    2.55195735009465
H           1.07069236772344   -2.78810214945935    2.71977067274818
H           0.75948376233403   -1.29958924143186    2.42350941635806
O          -1.97942657224183   -0.82443792133271   -1.81410229995418
H          -2.02018657654729   -0.98906903299010   -0.85498826366342
H          -1.60060375551572   -1.61758811240307   -2.19782661221568
O          -1.43980170659201    0.90422822576565    2.30896838953927
H          -0.86740642325965    1.37813312263625    1.67078661183711
H          -0.84867581932864    0.65990263560483    3.02703829421302
O           2.09933650917048    0.68026921140062   -2.50112544323412
H           2.37438912393305    0.89140094637756   -1.56965490428830
H           2.25151059956952   -0.26286996813072   -2.58921350941908
H           0.55169312893072    1.09190862642826   -2.37557077833961
O          -1.50478663678430   -1.27649810990247    0.84615827876691
H          -1.07967560210933   -1.90053587036410    1.46105114313062
H          -1.67798768614605   -0.47307360658115    1.40337526300170
H          -0.10228347912079   -0.85112038774487    0.16408180880771
N          -0.40097536987059    1.37829587140808   -2.00731936411488
H          -0.78395881078288    2.16293265259874   -2.52378787599724
H          -0.21135428577220    1.64046382580052   -0.98421283437779
H          -1.05357752260275    0.56041286002154   -2.01271703443202
