    26
        -50.45599949  Gyration_radius:  2.47903325277 Dipole_moment: 2.528
 S          -0.03090873821131   -1.32925672414055   -0.64844595946180
O           0.29483685272301   -2.41967643661706    0.22434517346059
O          -0.94765157954610   -1.80603601261372   -1.75878228805476
O          -0.90245877709256   -0.30462290508444    0.09933466496016
O           1.12250804274470   -0.65406223159335   -1.19916040355352
O          -0.20645559478999   -2.15649447764973    2.85285418861403
H          -1.02550106936569   -2.60545630091926    3.06650769778749
H          -0.00046443693236   -2.38850896702090    1.92647409711375
O           0.25464460005639    1.74706307794198   -2.07956819077497
H          -0.01939057792225    2.19421888108821   -1.24285485067637
H           0.78603477220461    0.98214519587995   -1.80276239881659
O           2.56027149575721   -0.65365710884514    1.05536442997281
H           2.55302702595383   -1.58424396185822    1.29374516295093
H           2.24306117822825   -0.61499716963934    0.13532565361750
O          -1.62914043601717    0.26592258392018   -2.99692429248576
H          -1.28133467400726   -0.96822441785780   -2.27862862954333
H          -0.95293451249672    0.94289671211226   -2.66057280745323
H          -1.44581418225363    0.14820601606122   -3.93205806976801
O           0.38060882068487    0.36120460938317    2.15936132864832
H           1.29975201128456    0.15188503922870    1.86268515505070
H          -0.41136113867746    0.03689454125092    0.94738054579510
H           0.12672955420743   -0.40960250157460    2.70627438809017
N          -0.57694715960491    2.72461726398235    0.32352567562991
H          -0.01635393531683    2.33105148426044    1.07043710426588
H          -1.49141076905023    2.29285694354184    0.37767925094213
H          -0.68334676255977    3.71587686676050    0.49846337369252
