    26
        -50.46972953  Gyration_radius:  2.43067613995 Dipole_moment: 5.138
 S           1.29954053904006    0.23747358636153    0.84840765741182
O           2.40398111905486   -0.10852390263979   -0.01427273687796
O           1.57726063306617    1.20893272481340    1.87349178086118
O           0.19195413170206    0.92749005360553   -0.05635512071760
O           0.63174729704156   -0.96711317479404    1.38207121617212
O          -2.68170634138373   -0.10524624724264   -0.82679080879461
H          -2.82135507890818    0.76709132211938   -1.20016457106513
H          -1.94374190233437   -0.49261412375678   -1.33086300543879
O           2.10954855588582    0.23602800532881   -2.62435868188286
H           2.30984872902945    0.10929330735926   -1.67046286003304
H           2.62189364163644    0.99550491104177   -2.90245851621230
O           1.08598624497862   -2.57284894905511   -0.66157405751166
H           0.93847605771067   -2.12916223457207    0.19909969941534
H           1.99459131426469   -2.35704555626562   -0.89098158575496
O          -0.28824269535708   -0.76662308867477   -1.98428420485385
H           0.41322912822493   -0.41664173398910   -2.56198801294390
H           0.11690443366662   -1.57930203809616   -1.58263917841294
H           0.01267781369359    0.30887035336962   -0.81540470561380
O          -0.74098564997179    2.27212584110503    2.32750318245268
H           0.18670299475346    1.91928975785125    2.27585904606039
H          -0.78844228964137    2.92808309374302    1.62899506449052
H          -1.51811718263023    0.90325852657760    2.00522621365116
N          -1.75908256476227   -0.09183890149544    1.72826721471797
H          -0.80376766866480   -0.57459897593313    1.65114280208986
H          -2.20331656001922   -0.10789271317285    0.78096859208438
H          -2.34558470006852   -0.54398984360600    2.42156557670165
