    26
        -50.47166720  Gyration_radius:  2.38845355766 Dipole_moment: 3.168
 S          -0.74997601789573   -0.99149071391565    0.68804456677143
O          -0.57403929076625   -1.14125714921175   -0.75262823424626
O          -1.96785061266766   -0.26180799371219    1.00504184281443
O          -0.87148107503522   -2.41294047347965    1.29814913908258
O           0.41433877601032   -0.34305917524551    1.29778825500922
O           1.80527838984259   -1.72352298428666   -1.66030357342511
H           0.88055754830022   -1.50276362688032   -1.39939408464741
H           1.74261158043732   -2.20937941812654   -2.48380434304304
O          -2.03748011784398    0.87631060966530   -1.67373634646990
H          -1.49685873674904    0.08425712108293   -1.48198648284954
H          -2.79620766050185    0.79429253373152   -1.09118776859845
O           1.75225735822682    0.98095141198336   -0.61298696928884
H           2.03080110387501    0.29917321000131   -1.23511115317349
H           1.33596567198256    0.49021920201509    0.12085324204034
O           1.69619294970942   -2.70231871579778    0.91862391428969
H           1.92435241297827   -2.56238824248559   -0.01847549896770
H           1.69159873873113   -1.81543992998751    1.30485033184366
H           0.04379734410593   -2.77710232775113    1.19913271322446
O          -0.28163192766614    2.69184944687785   -0.83785058509797
H          -0.95006591541384    2.14689520025012   -1.31613954535201
H          -0.61715892673099    2.42591702515125    0.55519903851686
H           0.56419360070030    2.19499425330498   -0.92270741620495
N          -0.84235446849074    2.00923580588521    1.56369675135595
H           0.01759846777748    1.58823609582877    1.92414083807581
H          -1.47804867858229    1.17088346217923    1.40671630128374
H          -1.23639051431170    2.69025536291139    2.20407506705287
