    26
        -50.47166719  Gyration_radius:  2.38844955936 Dipole_moment: 3.170
 S          -1.00698181723642   -0.84671748302971    0.53691305990986
O           0.41900630127941   -1.12678716472615    0.72678545875509
O          -1.50270302865900   -1.50097948129198   -0.66402300813356
O          -1.76939443647696   -1.43690805822933    1.75260493436767
O          -1.26167895611359    0.58969786889603    0.50905171334084
O           0.11732706437181    2.12747395991350    2.10828262880014
H          -0.38319179503959    2.91206562457332    2.33637743794824
H          -0.44163589644102    1.61827033980805    1.47563866158971
O           1.81864201561134    1.04948002880998    0.02088794739945
H           1.36903120142820    0.23998084186490    0.32945787224956
H           1.52425700663435    1.73834923074911    0.62770566398501
O          -1.49816398054404    1.03254568693843   -2.10007180529254
H          -2.02512216650324    0.26650326040192   -2.33932330456181
H          -1.46915589585032    1.01246751766299   -1.12274020525143
O           1.10381771330234    0.67194981576024   -2.52100400441069
H           0.16072532794448    0.95999923133289   -2.50889947578848
H           1.48293010736718    0.99589414234070   -1.67202636033837
H           0.98709177740348   -0.75383336093185   -2.24292594641238
O           0.03862088430821   -0.36112352773766    3.30018169652494
H           0.61571750078454   -0.75249180260916    2.62969911931444
H           0.09698507507180    0.59943667606945    3.14614223592658
H          -1.26343179756395   -1.08297069016312    2.52640998582032
N           0.79124173635406   -1.77660668499456   -1.84666171706224
H          -0.22076981780350   -1.78259934786366   -1.51899553310727
H           1.32085840539230   -1.87871248351396   -0.97733623163913
H           0.99597748097508   -2.51438412005274   -2.51213081400113
