    26
        -50.46278503  Gyration_radius:  2.54853774308 Dipole_moment: 6.691
 S          -0.75326188047572   -0.26318249126214    0.94699617136087
O          -0.43409000937899   -0.80206170197944   -0.37794548154979
O          -1.11930275407579    1.15204564179005    0.82481446608865
O          -2.02901404026703   -0.99114105853285    1.44551784629275
O           0.31651707149479   -0.48944698593198    1.89727222880058
O          -0.01358681954381   -3.40969075602807   -0.14921812349659
H          -0.09134408832201   -2.44143774157416   -0.28915961752826
H          -0.62541780267585   -3.81838874157024   -0.76368096943511
O           1.52305496068763    1.79085115733044    1.35884882261041
H           1.27369903137567    0.88750782834612    1.64156312872302
H           0.69193922349767    2.27196732979813    1.40795033063985
O           2.46155096085091    1.70292495066540   -1.13096725838216
H           3.32942065189258    1.30062650434058   -1.07246246757234
H           2.13670870447044    1.77288842946614   -0.20105679949985
O           0.51227890184949    0.49597188305180   -2.45907334700511
H           1.33359697386642    0.90430729645090   -2.09381298693514
H           0.24147840408802   -0.16616109629092   -1.78479927205273
H          -0.49056692092934    1.47370581879015   -2.07645704415976
O          -0.67034119708808   -2.93666879037941    2.41690469007615
H          -0.38703281861273   -3.36074772223147    1.58057679698817
H          -0.00596443333563   -2.25120960896002    2.58590657047937
H          -1.67193805048315   -1.81906526298167    1.88438801374286
N          -1.22616763721439    2.12526720387837   -1.55031197905448
H          -0.91247992023108    3.09042036665376   -1.53935579832155
H          -1.23982954602076    1.72843357358759   -0.53979722325291
H          -2.14990699542670    2.05228396356774   -1.96264068755552
