    26
        -50.46278496  Gyration_radius:  2.54828018675 Dipole_moment: 6.690
 S          -0.63293605483685   -0.88474771031888    0.59208322950299
O          -1.53167084424443   -1.27952495476746    1.79301542326791
O          -1.53000665612679   -0.77737601498517   -0.56356650159982
O          -0.05974763363273    0.43053591245036    0.89086991825491
O           0.38987466923084   -1.89628034042336    0.42023131972810
O           1.35988518166399    0.24557079343516    3.12203199311757
H           0.90676290118237    0.36397344201952    2.25955430306281
H           0.99446013910803    0.90945188126821    3.70909660598071
O           0.60090630092515   -1.50964481477295   -2.17777132536620
H           0.72018485697125   -1.74739462091772   -1.23571637880127
H          -0.35429432663166   -1.51935233362815   -2.28665316599816
O           1.62251345761593    0.91253908053051   -2.59701907040695
H           2.57441025159665    0.80461009693933   -2.57499725139052
H           1.24868366330915    0.00552209881472   -2.48413693453215
O           0.39759189227650    2.40590540852327   -0.78271480746311
H           0.96639447570778    1.97355739070144   -1.46388131579557
H          -0.93031497863713    2.06431244644665   -1.26235672337852
H           0.37886788116901    1.77039820049103   -0.03299330576811
O           0.44479313274889   -2.28450903486927    3.08107224963838
H           0.91460605125929   -1.45704395929950    3.31380321461214
H          -0.89443554676265   -1.71847328680122    2.43064802939922
H           0.76908366161502   -2.51430737445240    2.19684237425240
N          -1.88913290010313    1.57051792814157   -1.54256741946210
H          -1.79663857654709    0.57532290044899   -1.11831445884957
H          -1.98332092257651    1.50951828156145   -2.55127731493287
H          -2.68652005653195    2.04691861373029   -1.13528271722644
