    26
        -50.47166719  Gyration_radius:  2.38835002763 Dipole_moment: 3.170
 S          -0.78389115984284    0.64058417898062    0.99761598633816
O          -1.85548511779248    0.58259796490290    2.11823740602821
O          -1.38382868547833    0.09124095254597   -0.22144393338135
O          -0.41276416549927    2.03372696578517    0.80372796693971
O           0.35460327797580   -0.16231972393189    1.43150090747762
O           0.22429293820107   -2.75638900648275    1.15479387149196
H           0.35253381587097   -1.78842010406900    1.29107085146636
H           0.75908554597446   -3.19350026025518    1.81900771770430
O           0.42552732025853   -1.47149928049749   -1.43706524605047
H          -0.29045296523837   -0.94971337131137   -1.02749624281221
H           0.60898791544530   -2.17385065283588   -0.80263074943227
O           2.39270608508788    1.29808215849393    0.55258162420329
H           2.07216359821469    2.17019013223516    0.79439809183184
H           1.74955154508477    0.68206237049533    0.95671883223583
O           1.89890063259862    0.68226456233336   -1.98798392028654
H           2.28502899898034    0.89202352926177   -1.10511737715849
H           1.52772460435512   -0.22532282243228   -1.89754499203831
H           0.67937363340562    1.47957484251493   -1.98033660151438
O          -2.37918395108107   -1.86487710174855    1.37183673289123
H          -1.57429147878766   -2.41378040194785    1.39877091830606
H          -2.17945087569438   -0.35155363834438    2.06889908224020
H          -2.35456938080693   -1.43620591520127    0.50500026743235
N          -0.29978088539945    1.97589770792813   -1.78877324220672
H          -0.32119439856820    2.20621416784722   -0.75048454746258
H          -1.03092289976573    1.26730858158760   -1.88816640612942
H          -0.46466394750386    2.78566416415012   -2.37711697809204
