    26
        -50.47166717  Gyration_radius:  2.38844410872 Dipole_moment: 3.170
 S          -0.81510077263733    1.12973101173158    0.28197417733541
O          -0.72023216392695    1.87098546696763   -0.96608941183452
O           0.50976771409350    0.96350502637814    0.88612389808352
O          -1.68157459762133    1.95902643195187    1.26632964384576
O          -1.47190789125838   -0.15917435527919    0.09154720171042
O           1.32991925160300   -1.55576610481054    0.46938652776117
H           1.07609679367747   -0.63911339665609    0.68831542606547
H           0.67917473414215   -2.10380734612989    0.92273428497488
O          -1.06424413428142   -0.58070329660162   -2.49997551807586
H          -1.24341543956433    0.30284753587174   -2.83008278750639
H          -1.31476151985323   -0.54290005084366   -1.55539409640189
O          -1.14470531105554   -2.00188052540888    1.91391255180958
H          -1.31614166139566   -1.36310961625282    1.18282798312603
H          -1.90193275500529   -2.58846140484071    1.94031654151298
O           1.53022560031011   -1.04807134519650   -2.14122926588071
H           1.53115345418851   -1.44896185998452   -1.24188269549740
H           0.58322331503336   -1.03241525673526   -2.41577029410932
H           1.77341237905564    0.35194318702371   -1.81745899063468
O          -0.81208967737328    0.42276697747588    3.19145811490807
H           0.02448038335639    0.59950667306436    2.73905000323734
H          -1.55296963208771    1.48837234850402    2.12766531586539
H          -1.00378635359092   -0.51321691651950    2.99910599781243
N           1.78908379334298    1.39607588157815   -1.42906522798379
H           2.39043413795524    2.01646828493189   -1.96068338780368
H           2.04921961582884    1.35482150357398   -0.44050538461550
H           0.77667071706143    1.72153113618222   -1.40261057769108
