    26
        -50.47166718  Gyration_radius:  2.38844329828 Dipole_moment: 3.169
 S          -1.32188048869965   -0.13479517527965    0.50414925534367
O          -2.30153613122179   -0.33996894433545    1.68971689244833
O          -0.50506720635476   -1.33855959681974    0.39103795621000
O          -2.11173461818042    0.09025906555796   -0.69650272066634
O          -0.49595665602331    1.03751775063908    0.80652232960536
O           1.52700080205799   -1.61748024355096    2.00851906103638
H           1.70945463898387   -2.54526453071913    2.16372250939694
H           0.78246422870382   -1.58727905868110    1.36300465151459
O          -0.32011280215190   -1.60372551343285   -2.24632640383826
H          -0.33072210636657   -1.64997394928969   -1.26951885741060
H          -1.22732973661673   -1.40027023409710   -2.48571805251553
O           2.03570668289080    0.50537688428070    0.09895532076695
H           2.29296015904625   -0.24211450852763    0.65080820090016
H           1.14409442633471    0.74861267762862    0.41285911286405
O           1.30509923709208    0.49107312921331   -2.46612993491160
H           1.78765978846526    0.45128865149120   -1.60877253167195
H           0.82809050586622   -0.36935061113628   -2.53405788735244
H           0.22427846014123    1.40898081312844   -2.13004860044115
O          -0.28230122865313    0.01262273580432    3.30821621922835
H          -0.12789809243314    0.74836418108737    2.69944586557316
H          -1.70574540276946   -0.30736362951946    2.47968840070688
H           0.43067566942722   -0.62264439230651    3.11345330653069
N          -0.63498050721065    1.97366522607904   -1.70076676931281
H          -1.37195450602174    1.25023422643801   -1.44561883919161
H          -0.98900035234686    2.69975011534488   -2.31442659758322
H          -0.34126479399840    2.34104493101778   -0.79221188724472
