    26
        -50.46278512  Gyration_radius:  2.5486412817 Dipole_moment: 6.694
 S           0.05239501127378    1.17615545875151    0.38635389119454
O          -0.70729087310318    0.94845471632236    1.59854467337649
O           0.97606424172431    0.07435820886573    0.10197170042045
O          -0.79767732397488    1.41711607762237   -0.78460367326058
O           0.90606706655753    2.45914019428097    0.56328699642456
O          -2.67722285822533   -0.27562340380427    0.34659524248186
H          -2.71068937314402    0.41092924488516   -0.32576115152838
H          -2.02878596679954    0.07529762035179    0.99033127379164
O           2.64669905997531   -0.17562592654742    2.14485086199193
H           3.52325460184519   -0.10695316443618    1.76293120757001
H           2.01906208968000   -0.17837515190250    1.39029400314799
O          -1.78300909168683   -2.57699188530220   -0.64936039182310
H          -1.88249990940006   -3.22451486780836    0.04997407900267
H          -2.15525135780089   -1.73618190477127   -0.28940880541809
O           1.31132786331119    1.97769942934512    3.04884591015608
H           0.42300519168432    1.59131785010558    3.01229080798061
H           1.92047731398538    1.21533029010507    2.96222186992132
H           1.16168889908404    2.44083894631424    1.53281651563787
O           0.62514202715673   -1.93906809735277   -1.55178102464107
H           0.90575178460821   -1.32029629643685   -0.84133949673777
H          -0.21744833137801   -2.33370014078479   -1.22167511478486
H           0.12873102892063   -0.89500179727385   -2.43103500541440
N          -0.30787797748296    0.02368390480468   -2.88624589240054
H          -0.50393738850768    0.66276568304769   -2.03048613725075
H          -1.17638347196267   -0.18775684354551   -3.36691114054889
H           0.34840774365902    0.47700184514961   -3.51270118929679
