    26
        -50.47166721  Gyration_radius:  2.38845392824 Dipole_moment: 3.167
 S           0.13478747753755    1.00362746949850   -0.99604442435461
O           0.50998243149831    1.43425120820667   -2.43877550723472
O           1.30011834097518    0.33140555547950   -0.41461671951688
O          -0.19462010561920    2.20303002582485   -0.24164061003053
O          -1.00473687519593    0.09686871715912   -1.08639071411787
O          -0.55800252327187   -2.40124140380785   -1.70607275734366
H          -0.81001776480395   -1.47866095765232   -1.46674090875689
H          -1.31650664119678   -2.77855867098511   -2.15389433631839
O           0.45319937565993   -1.81700880595635    0.94955297765711
H           0.03346756809329   -2.37857706481373    0.28781775885375
H           0.83064367016944   -1.07501335311505    0.44006117413288
O          -2.44176295565862    0.84989175893764    1.01814674924168
H          -2.04024906487778    0.49335914482530    0.20081682485118
H          -2.34777009786833    1.80173290418916    0.93443932346497
O          -0.70954044022466   -0.21260672253473    2.73520049184427
H          -0.36564222504403   -0.97461593117911    2.21502085437454
H           0.28270974076864    0.80630012752641    2.41772732725779
H          -1.49695184406729    0.10699155935175    2.23486703317130
O           1.52018272492215   -0.94767565809124   -2.79569662352760
H           0.88644993857641    0.60563287926004   -2.82825887426359
H           1.89552185146676   -0.74404606450923   -1.92769090640448
H           0.85194695988422   -1.63519878839821   -2.62063465977990
N           0.99783300833957    1.52994932238463    1.96325844076237
H           0.48395070698956    1.99167233989976    1.15441220170018
H           1.73159065568734    0.98965252801929    1.49806560105570
H           1.37341608728116    2.19883784047094    2.62707027330460
