    26
        -50.46972954  Gyration_radius:  2.43079353076 Dipole_moment: 5.138
 S           0.00120507764350   -0.59362441462989    1.45346590554720
O           0.24872115436282   -2.00776748011402    1.30310275027766
O           1.24079759608194    0.19302079973565    1.29113562714480
O          -0.90915017568582   -0.14132009195226    0.23359173622162
O          -0.74661033273591   -0.20241603928485    2.61938580174054
O          -0.21200511058862    1.75860604216309   -2.17916403480378
H           0.11998707206519    0.84564120347977   -2.25005955187719
H          -1.14511649957623    1.71292736218546   -2.39615656484631
O           2.46790297979272   -1.40511414793933   -0.41215293208718
H           2.18172865481103   -0.78089082288511    0.28629417107355
H           2.26947568228720   -2.27503832181910   -0.05354234478989
O          -0.58599770486890   -3.19732504688726   -0.91196075140900
H          -0.27456454011326   -2.83952436353373   -0.05111520347877
H          -1.35147254793072   -3.73637414936948   -0.71170610061049
O          -1.84433185439024    2.03080992457778    1.89903905934669
H          -1.45205320084193    1.21336606031593    2.30600815018103
H          -0.60819291632952    2.42291187854154    0.95029158129049
H          -2.62053513974469    1.71767050055907    1.43011218053815
O           0.36934376877026   -0.90515593626063   -1.91109728915199
H          -0.45286176990800   -0.44762804780231   -0.59639860610086
H           1.26504381297145   -1.06083894563597   -1.51187431780730
H          -0.03754949414397   -1.78976263111846   -1.92479017267810
N           0.30223717195623    2.41513849340023    0.40626528524064
H           0.81900076654488    1.55395906712369    0.78446124155191
H           0.83866002311052    3.26269008930680    0.55797837805120
H           0.11633752645569    2.25603900783396   -0.61111399856772
