    26
        -50.47166722  Gyration_radius:  2.38845402719 Dipole_moment: 3.169
 S           0.08146020575454    0.88440277719461    1.10935646201023
O          -1.13611274008708    0.12278404509511    0.81718851107700
O           1.27506535993423    0.12767375518653    0.74652875426776
O           0.04766270345201    2.17926822354870    0.44731662440183
O           0.12735817283379    1.13095444991273    2.64056278779989
O           1.28047484618536   -2.45289501639986    1.15113599168052
H           2.17226528513711   -2.76856415470321    1.30353174570204
H           1.35756558925714   -1.48761865099664    0.96592902075419
O          -0.54848575554680   -1.76714419708861   -0.99274488716883
H          -0.82032438706327   -1.12860634871631   -0.30643332819950
H           0.10592325594320   -2.32692114764814   -0.55936055360004
O           1.92041502312676    1.24373785815436   -1.57693568072547
H           1.76895862616292    2.16490971383193   -1.35280012409379
H           1.82329164417103    0.76767367368412   -0.72821657422999
O          -0.14629161691585    0.12760132014748   -2.82640797245218
H           0.72255717182099    0.49888985383906   -2.54400965444416
H          -0.24042415328434   -0.71597482167453   -2.32739884664478
H          -1.08577426186466    0.97797398369883   -2.10654810967349
O          -0.49128185662338   -1.38387649433292    2.97799346424600
H          -0.02995778893094    0.22875292017383    3.01656377822009
H          -1.13282152308596   -1.15327882917093    2.29169922968220
H           0.15348057808165   -1.96079999015410    2.52932682503602
N          -1.69293209263767    1.55983049457046   -1.37566433157652
H          -1.00248212103009    2.00869627266906   -0.70234054332399
H          -2.19456150639820    0.89016773368451   -0.78698921267403
H          -2.31502863840670    2.23236259548295   -1.81128337606054
