    26
        -50.46278476  Gyration_radius:  2.5481876769 Dipole_moment: 6.691
 S           0.39650131051332   -0.55400342471639   -1.03401700088298
O           1.37822888488030   -1.15942330262770   -0.12762669055429
O          -0.79333878688819   -1.36371075093336   -1.20010393738866
O           0.07882235567045    0.80141007897688   -0.57592591455803
O           1.10866569360635   -0.42221983060626   -2.40563469212934
O          -1.51033329822207    1.94901723559318   -2.36094900633685
H          -1.06435183269903    2.75980258835046   -2.61110437902163
H          -0.98028877695550    1.55888617631156   -1.63293132373435
O          -1.21249698189144   -0.28495693329153    2.94446831653909
H          -2.16566103316981   -0.23396434627661    3.02873007464246
H          -1.03765002278830   -1.05833642242372    2.35568364601484
O          -0.73005724462738   -2.29308810792981    1.26527538942102
H           0.21099851736436   -2.47826100352536    1.19682202066512
H          -0.96767498867947   -2.01409659422407    0.35772173075032
O           0.15034451169140    1.72490878782482    1.88441793918652
H          -0.44070269338423    1.09410835671609    2.36124141150823
H           1.41633785914855    1.01452554612996    1.91917665417088
H          -0.01434281405545    1.54987583144117    0.93122008498820
O          -1.11776965716612   -0.36532939083134   -3.67650446927595
H           0.35158995176305   -0.39131621563947   -3.06228009491061
H          -1.41665907309518   -0.95668570668099   -2.96888722878654
H          -1.42819309238616    0.52420290625141   -3.40846744667862
N           2.27721644340512    0.32279566895717    1.76848210504144
H           1.95452600155149   -0.30921869176214    0.94678981998702
H           2.43814149640210   -0.24113548309804    2.59682779765639
H           3.11814727002573    0.82621302801921    1.50757520368760
