    26
        -50.46972957  Gyration_radius:  2.43073199771 Dipole_moment: 5.143
 S          -1.34744016492002   -0.73659179862762    0.32946711597970
O          -1.71824175074603   -1.44003149590341   -0.87533240910629
O          -0.26711801653819   -1.43632852004562    1.05389036049531
O          -0.69185454273994    0.64097959331311   -0.11088041580115
O          -2.42991513294498   -0.35382200535408    1.19744414943488
O           0.94071366501648   -2.50528998309952   -1.03377624148228
H           0.54084131819740   -2.26427564795529   -0.17266862414468
H           0.19793997278403   -2.79572440242968   -1.57114549692625
O          -0.98280537310704   -0.41186435118927   -3.20315640989827
H          -1.74829607846924   -0.03504124599237   -3.63754947976594
H          -1.32002460759550   -0.84075638587500   -2.38548949535729
O           2.29004725214288    1.61602912387480    0.18658010098608
H           1.97093642121575    2.47315423042581   -0.10231171208638
H           2.11416004438543    1.00644376074193   -0.55247199962354
O          -1.47733507151657    1.69562384899398    2.46379671929430
H          -1.64653097157367    2.40101722795406    1.83593478430511
H          -1.93866995455862    0.90362407323555    2.07953392166257
H           0.02262206308448    1.12127261043163    2.42540114736763
O           1.23103995373856    0.00296956444473   -1.75783415989303
H           0.02838234951375    0.42287574681484   -0.76252142379240
H           1.31256603931709   -0.96157680937504   -1.53664188047696
H           0.65713568313025    0.01495455943179   -2.54451967012570
N           0.88391914434029    0.53006203555845    2.24175347662354
H           0.48811687639760   -0.37496919497579    1.82247020610955
H           1.40240139600003    0.34529751277974    3.09388439711447
H           1.48740948544698    0.98196795283092    1.51614302910445
