    26
        -50.46278493  Gyration_radius:  2.54821263027 Dipole_moment: 6.690
 S           0.16928687188628    0.41368518057236   -1.15505127995921
O           1.16727402152577    0.78081850134710   -2.28429255630173
O           0.91316883681512   -0.34584642894356   -0.14631099725465
O          -0.27370756374753    1.68834989641717   -0.57978675146686
O          -0.91750461683911   -0.35758111312945   -1.72315542124295
O          -2.67601570668400    0.46682030393804    0.05851041916197
H          -2.38984008069580    1.37881226848823   -0.04602587311357
H          -2.17137216661129   -0.00482371218477   -0.63494430142755
O          -2.00086934852345   -0.50329680288187    2.44359572655630
H          -2.40601159983285   -1.36977281170914    2.50095615225229
H          -2.29011124432293   -0.13030098514018    1.57610785510531
O           1.89626872874021   -2.52889434952753   -1.28476205401316
H           1.50572002407095   -1.77637376070262   -0.79043518151447
H           2.83984502296467   -2.49654565665887   -1.11898436067614
O           0.63673405342116   -0.25302342889227    2.46636794135679
H          -0.32285763357678   -0.45461847631521    2.58129738146296
H           0.83041541243645   -0.48574027114496    1.53112493696477
H           0.60388674856259    1.17911256279371    2.22857412647793
O           0.79114927440603   -1.45134694654387   -3.48918606752022
H          -0.10986256412965   -1.36754092995637   -3.14144064161447
H           1.14432029646126   -0.01897060113370   -2.88856629584756
H           1.24862104215244   -2.04732646541359   -2.86074983431008
N           0.49012131081807    2.20873083805549    1.81721099298477
H           0.19613541292096    2.03929019422162    0.78581333100072
H           1.36526111419241    2.72046850813151    1.84737750300860
H          -0.24005564639073    2.71591447632649    2.30675524992973
