    26
        -50.47393292  Gyration_radius:  2.40352023036 Dipole_moment: 4.922
 S           1.11952071988150    0.00419890735428    1.23826356820508
O           2.11909960534025   -0.91471548334185    0.74942821390572
O           1.02568426143312    1.21543144794408    0.42441822702798
O          -0.20642173020392   -0.63224787740273    1.34111715986679
O           1.52714137237660    0.42533746382536    2.67689932514777
O           1.73536604791255   -1.78725351692209   -1.64579643061910
H           1.93462325383927   -1.47677791633053   -0.72080613597430
H           2.46114390124831   -2.36419727165199   -1.88843997493127
O          -0.85275050542768   -2.07799362471166   -0.79102388166243
H           0.01925060414417   -2.21912109969382   -1.19958471975639
H          -0.65071421472184   -1.70862843428879    0.09651521296403
O          -1.56940319604772    1.41314763964846    0.59414712861880
H          -0.71147875790406    1.84103557392399    0.41889428842671
H          -1.25830709123295    0.53348272135600    0.92771560909964
O           0.97107330113172    0.79118346601279   -2.17938719025719
H           1.37110784417294   -0.09433279629958   -2.23125120168155
H          -0.56367307667038    0.53717789967812   -2.12123401301136
H           1.12575669817183    1.07394334014694   -1.24874926228703
O          -0.82265876684904    1.51037962245225    3.30489576387692
H          -1.26102922514446    1.74492547430172    2.47018449820651
H          -1.26410825237987    0.72063217458704    3.62754423034776
H           0.74878365839987    0.92897770475987    2.99454730917015
N          -1.54733409428031    0.22366106514176   -1.81816566348531
H          -1.80035165345767    0.79180011741204   -0.97560238384987
H          -1.41787120001975   -0.78723455030237   -1.48480638013726
H          -2.23244949364708    0.30718796232029   -2.55972331724344
