    26
        -50.47393294  Gyration_radius:  2.40335890777 Dipole_moment: 4.921
 S           1.24030206395399   -0.98105324691310   -0.53428375057895
O          -0.12376614096565   -1.41113328084921   -0.83867476580258
O           1.81961538489837   -0.18862572709246   -1.59220878249337
O           1.26355166841974   -0.27130816214092    0.75774722457490
O           2.11551165738871   -2.25297916358861   -0.36257603856451
O           0.47242624091011    2.25811842331084    0.58604199532900
H           0.57412962435022    2.42801828782076   -0.36688905128918
H           0.92557789047849    1.39879841027572    0.73174352946011
O           0.57475789497876    2.00106686294645   -2.14081755106990
H           1.08994393555342    1.16523695062773   -1.97463307807843
H           1.01870640994754    2.44008757745964   -2.86789033131388
O          -1.01469749530579   -1.11537463505658    1.59380866294725
H          -1.11251480637624   -1.52140891981460    0.71308212789793
H          -0.12041080396000   -0.70094362058810    1.49383621203736
O          -1.68569895065002    0.48672982446861   -1.79922551500311
H          -1.16390576581915   -0.32119571455142   -1.58727912317804
H          -2.00839459353384    0.97321202534977   -0.35566231372119
H          -1.02616624927003    1.11773655451164   -2.13625768679666
O           1.06598029776807   -2.97128768750876    1.97734954371711
H           1.63849985695185   -2.45834483246496    2.55330715930537
H           0.18654684679677   -2.56252991627278    2.03450698766090
H           1.75321510638449   -2.66876469613508    0.44748709965501
N          -1.93435614850497    1.24196053580816    0.68343561872408
H          -1.01900809292043    1.79596893883379    0.75467284681394
H          -1.79329292062732    0.35193911540881    1.21724970828175
H          -2.73655289092052    1.76607608617972    1.01212926147123
