    26
        -50.47393289  Gyration_radius:  2.40342601386 Dipole_moment: 4.922
 S           0.99741855420041    1.30412202414787   -0.30162730313310
O           0.24705892846444    2.39843218808389    0.26595130403314
O           2.36256827526421    1.86695358335204   -0.78417123205025
O           1.29625189330012    0.26581743533164    0.70154482470066
O           0.32664233662512    0.70190535968817   -1.45297984905085
O           1.00337995538877   -1.74739847182907   -0.86746561858900
H           0.70574456604817   -1.10113310620044   -1.53362620571944
H           1.19461132113320   -1.13810187458482   -0.10991763788610
O          -2.09710661433411    1.78892300975572    1.14844249423785
H          -1.20395775064809    2.08004451897590    0.81790366956232
H          -2.52257005726564    2.58105044797480    1.48011562141766
O          -0.79146130288227   -0.37208554937199    2.21433761610121
H          -1.36998885342027    0.39895705606833    2.07952368030059
H           0.06991599305876   -0.10309430261164    1.82618810154992
O           3.51930683046437   -0.51006387443611   -1.10952835387036
H           3.84958332272221   -0.63186319507402   -0.21577483259522
H           2.80792030093270   -1.16106384736551   -1.22742236000046
H           2.86570953490365    1.06198735504588   -1.02724658859248
O          -2.24598298039839    0.23042827793522   -1.10312538771924
H          -2.45113645320587    0.84575192210317   -0.37789045505047
H          -1.34070015275175    0.48831819685417   -1.39282510633208
H          -1.91940400270408   -1.12222974921461   -0.40423045223955
N          -1.46293779894274   -1.89040713242585    0.19485310545534
H          -0.54112371332802   -2.11336335486241   -0.24954326119395
H          -2.05000066437549   -2.70957658189390    0.29774884034662
H          -1.24974144821419   -1.41231034542846    1.13076538641641
