    26
        -50.46972952  Gyration_radius:  2.4307555272 Dipole_moment: 5.132
 S           1.43151123732258    0.63817170041087    0.09815543744613
O           0.44626027549562    1.71037972441191    0.34614581806918
O           2.36920584220254    0.98514576257310   -0.93727114716383
O           1.99985573476733    0.14696003080913    1.33080553323120
O           0.57315232195853   -0.54133834722189   -0.52897630623957
O           1.24862833564480   -2.24244907978549    2.19301972216433
H           1.96318313030435   -2.86550628687290    2.05929459873865
H           1.60182096552924   -1.36476899089638    1.92637543792673
O          -2.54572843249057   -0.74948862587080   -0.92027578187149
H          -2.21824915854989   -0.93252995765639   -0.02137665753922
H          -2.36103573091233   -1.54072341933793   -1.42991006367374
O          -0.41332828554057    0.88165549183657    2.69861495758209
H          -0.11983698434255    1.35821845097873    1.89473388057614
H           0.40268568564646    0.61024496139692    3.12900077100230
O           0.98834406877773    0.69420639553354   -3.10965057773579
H           1.60650155823344    0.88050386591338   -2.35407438816873
H           1.07199287595918   -0.24933057915682   -3.26208129987580
H          -0.38026422863517    1.13158713199474   -2.39067169872850
O          -1.09429685539888   -1.26414563682451    1.34555852144218
H          -1.01827328282938   -0.46984557145892    1.93669237729468
H          -0.05282682914898   -0.85178561980755    0.18013577922709
H          -0.48143380415372   -1.90931386919403    1.74101436133404
N          -1.10922097868082    1.42761418526106   -1.67932509852390
H          -0.53292803422728    1.66381123375397   -0.80542081795632
H          -1.73421731050682    0.62232229123178   -1.44298039721764
H          -1.64150212643966    2.23040474797133   -1.99753298134325
