    26
        -50.47393305  Gyration_radius:  2.40332899883 Dipole_moment: 4.923
 S          -0.22099476893104   -1.64798660574888    0.15285672706473
O          -0.83541840543108   -0.80078392762352    1.17395722717270
O           0.16391436205451   -2.99740581380860    0.81914275033970
O          -1.11841997843654   -1.93746521928551   -0.93955125314600
O           1.03400576228546   -1.03298427268416   -0.31713655593978
O           1.31667228641445    0.59284532251129    1.65186030220548
H           0.44140367510629    0.28409163485376    1.94922836329242
H           1.42459042573532    0.04356981089624    0.83427406374322
O           0.66474014243716    0.89765080392319   -2.10283840149036
H           0.91908723864160    0.10656087915100   -1.57888183610179
H          -0.23842052434267    0.70508811031748   -2.41026013603029
O          -1.95841970380018    0.11736165491006   -2.25009487206630
H          -1.66975271022308   -0.70906821768039   -1.77540721142073
H          -2.56496674277589   -0.17317188623157   -2.93286814899446
O           2.19813285142622   -2.01622294284400    2.23068547490637
H           2.04259086306671   -1.06257580559468    2.33179296557866
H           0.86988223994837   -2.74512714113403    1.45024023843908
H           2.88740798078985   -2.10709049382556    1.56783497500224
O          -2.14933247388464    1.28167648413487    0.22495037305739
H          -1.81493317422503    0.47381685531082    0.67824773911925
H          -0.82660633974356    2.09802157629492    0.13916272250561
H          -2.32514691498856    0.99084242588662   -0.68682266225457
N           0.19862435444517    2.38987302392787   -0.00740670473283
H           0.32428156933867    3.39506540744201   -0.01277827070840
H           0.47993318089055    1.93148715251560   -0.93506898298353
H           0.75714483423092    1.92193120436585    0.74488108336856
