    26
        -50.47393286  Gyration_radius:  2.40346081774 Dipole_moment: 4.920
 S           0.78941044961006    1.43820000372362    0.30742475021860
O           0.66816431535519    0.34950756408853    1.29423724841733
O          -0.30662546171294    2.37225346655023    0.40162612274162
O           2.09615145739859    2.20668705718501    0.64648529686304
O           0.93325779825388    0.87609547159476   -1.03483229672683
O          -1.77530907077886   -0.68259249794650    1.43231763499635
H          -2.30579855889227    0.02260932793737    1.02167162698423
H          -0.89310714812188   -0.27458841993058    1.57443201353546
O           1.56709220170050   -1.51914511618568   -0.22261407984029
H           1.57148982624526   -0.85047983279255   -0.93179255502194
H           1.23084721046227   -0.96953263780574    0.53002615937358
O          -2.63446943773490    1.39979921988631   -0.12850125016353
H          -1.75971880939944    1.82784424796559    0.07940750112817
H          -3.28775140974658    2.09794733382435   -0.06298873825772
O           3.60173450839399    0.03094567113694    0.95122582729023
H           3.17161171084466   -0.68635827668896    0.45703021898208
H           2.76916020663387    1.49625780359040    0.69778725739590
H           3.42321981522294   -0.13792784700299    1.87984182846974
O          -1.32449374539381    0.06620022423962   -2.13526498476670
H          -1.97501671131574    0.57736847905303   -1.62322807651135
H          -0.45608045512225    0.45873424928415   -1.88695365402534
H          -1.21243962879332   -1.29962853058422   -1.39552899613526
N          -1.03016966024429   -2.06257782458130   -0.65931770585656
H          -1.44727366337396   -2.95267736185612   -0.90418911989042
H          -1.42237083643270   -1.65736525806910    0.25282433914592
H           0.00848508690975   -2.12757653662431   -0.54112635841296
