    26
        -50.45352269  Gyration_radius:  2.60000762498 Dipole_moment: 4.458
 S          -0.54550620095050    0.33977575244273    0.72659044186590
O           0.14336691323696    1.44882735662186    0.07143442083403
O          -1.08440796571740    0.82670525207273    2.08491822570851
O          -1.72837467659076   -0.05663620728912   -0.05722437239382
O           0.34214470694919   -0.78953827905915    0.94878731581121
O          -0.71845962200027   -2.63688211933616   -2.49921530454260
H          -1.28314655895550   -3.29049331123539   -2.91576865645601
H          -0.79311018191391   -2.78372415971148   -1.51050302012038
O           0.54067875310536    1.32201076064126   -2.46804010786856
H           0.40532730347115    2.21436725796363   -2.79378265752347
H           0.49713656453322    1.38258262828126   -1.47311520483283
O          -1.14855520119698   -2.75501059681673    0.06453810709707
H          -1.95371347524132   -2.23513412994949    0.16257314050032
H          -0.45632454444002   -2.16971612100517    0.44423851856218
O          -1.46177085597559   -0.22196258849453   -2.50649273241258
H          -1.14527101642165   -1.20541546355875   -2.60633751198332
H          -1.65541986579400   -0.11759509882759   -1.46131358693785
H          -0.63821836999419    0.38262007027695   -2.64414353591183
O           1.03779648230237    0.21447427973579    3.34676180568989
H           1.11677265387077   -0.49329195142779    2.68995848594864
H           1.61704768791662    0.94120344249110    3.00520325029362
H          -0.32666467897120    0.64639974821768    2.72970712623432
N           2.26582165099700    2.09945625179411    1.88527004759245
H           2.25326503295793    3.07857798207988    2.14152421334416
H           1.55366985108959    1.95682256955884    1.16793987834290
H           3.16591560375103    1.90157666449682    1.46649170317647
