    26
        -50.45352279  Gyration_radius:  2.59990341716 Dipole_moment: 4.460
 S           0.92446996662914    0.26458458404759   -0.12733943236384
O           0.88309078590999    0.84102480235973    1.22787562324429
O           0.06795586931453    1.03320644867376   -1.02701389351572
O           2.38455483929484    0.40145245666359   -0.59864965245445
O           0.56373753131602   -1.14336611237175   -0.11260001031333
O          -2.28653769085156    1.68700096081278   -0.22008124388656
H          -1.42386714574829    1.38323554680263   -0.61888816213683
H          -2.43593387345194    2.57331563347120   -0.55603753698386
O          -1.86274520208443   -0.75973459747136    3.11047221693457
H          -1.94420403233072   -0.83009797178715    4.06337599998799
H          -1.00120485359285   -1.20873029333912    2.86373346686953
O           0.51452967218403   -1.60016390134790    2.46724870388199
H           0.49245438404231   -1.63241368399972    1.48519919066497
H           1.06191050483670   -0.82853141830120    2.64932542543196
O          -1.32695572647371    1.49853889789062    2.11190687871178
H          -1.85227243504442    1.60990475386099    1.23183253873091
H          -1.63884026570980    0.61040741938315    2.54948124066865
H          -0.33891895540009    1.28435160118064    1.76792320338224
O           2.25837674186159   -1.61050897681775   -2.15018056732558
H           2.50488897221778   -0.36017196896552   -1.25273923243726
H           1.62228648153171   -1.95425921524775   -1.50536598531534
H           1.70201003480413   -1.20336523694418   -2.86079310784308
N           0.48130740055263   -0.19985349595072   -3.58187567068347
H          -0.36883675437155   -0.64410450684249   -3.90535455128750
H           0.76289420623380    0.47432549220248   -4.28235918679431
H           0.25584954436023    0.31395280203723   -2.72909626518447
