    26
        -50.45352270  Gyration_radius:  2.60009259314 Dipole_moment: 4.455
 S          -0.49466849538291    0.54081568783731   -0.63518113341419
O          -0.92950759133384    1.44056557695597   -1.80739988720492
O           0.00607709391011    1.38784752824876    0.44447625769979
O          -1.71008126221711   -0.16946971386362   -0.20039670250954
O           0.51933713676426   -0.38851471525799   -1.10491872791061
O          -0.71776886401869   -3.37826898278546    1.33639370198428
H          -0.67023781496608   -3.17511260249308    0.35597287927555
H          -1.25634015194457   -4.16664953313054    1.42596493305238
O          -0.85496298505028   -2.61918154386549   -1.14888899430571
H          -0.18739437583251   -1.90051986447354   -1.21049487321657
H          -1.69245362951272   -2.14357798548786   -1.17300301357990
O           0.13569732077974    0.40702508557751    2.82023120292156
H           0.19476238507103    0.80775978103616    1.90846471241051
H          -0.12260114187397    1.12100060679824    3.40697123697353
O           1.36597529768540    1.42543116471458   -2.90351578329266
H          -0.09291001666697    1.53875831822630   -2.36675603028444
H           1.83035155627009    2.01841872645430   -2.26091695472602
H           1.44338423070909    0.53859704907997   -2.52132978108174
O          -1.69487355993025   -1.16323933162759    2.06004447925133
H          -0.95557312938724   -0.59929516315266    2.50528786556171
H          -1.78360576700607   -0.71205171902633    1.09603839577342
H          -1.29444450443417   -2.10028125594841    1.86289915501375
N           2.23660892412901    2.74736876789508   -0.73734474202641
H           2.15447201764833    3.75201575236069   -0.64570302435095
H           3.10161926445552    2.46663133806396   -0.29273547009162
H           1.46913806217596    2.32392703779781   -0.21415969196462
