    26
        -50.45289445  Gyration_radius:  2.64832294688 Dipole_moment: 2.980
 S          -0.29613101066011   -0.06882810520166    0.75566265808959
O          -0.19871828989440   -0.97037158018204    1.87787992244139
O          -1.29584466579496    0.95192828646501    0.85304893063063
O           1.08262507465394    0.58326392886506    0.53484017036988
O          -0.54056528761537   -0.87504682452299   -0.51548025160156
O           0.26892333018353    3.48590943477610   -1.90674612142159
H           1.02179758538281    3.21290793086687   -2.43305606587551
H          -0.43677176291046    2.79488208660590   -2.03491051594996
O          -0.93977379053097   -3.56110416679991    1.54601274039018
H          -0.72458319769921   -2.66288162840613    1.85562664431129
H          -1.89498165236108   -3.63411365538742    1.55523849486405
O           2.33750177631783   -1.77653268601920    1.38639420606794
H           1.51116694530006   -1.52114510060093    1.83108824634505
H           2.72011873515048   -0.95491677694268    1.06793695080763
O           0.78996462256859   -2.96554763138653   -0.41061499187101
H           1.54275353065243   -2.68563162480003    0.16373266816634
H           0.20126634813063   -3.47804924700507    0.18218856139686
H           0.04224604880604   -1.77579909339036   -0.53376094113831
O           0.52344324730500    3.00644803560614    0.66412319903413
H           0.95113479570243    1.61714500648299    0.59023660288479
H           0.47937520168331    3.32311763574255   -0.27930387968883
H          -0.38923059779999    2.83406048960795    0.92868653337685
N          -1.51631042171459    1.49628356852241   -1.97662447473118
H          -2.44177613719691    1.66991020297551   -2.34982834098028
H          -1.61481067706416    1.32766186709679   -0.97701719563986
H          -1.18281978059755    0.62644963703162   -2.37535374026889
