    26
        -50.46379213  Gyration_radius:  2.52767326251 Dipole_moment: 3.678
 S           0.45189676634933    0.10494012313129    0.59796676654405
O           0.12272716554273   -0.42997523808336    1.89487396855221
O          -0.75916079382439    0.71377948724594   -0.02845515780041
O           1.56444968920756    1.01956738043578    0.56733266174486
O           0.77322525904343   -1.13212258990902   -0.30177049113241
O           3.80897217868494    0.58198341713898   -0.79036907825337
H           3.05403831857009    0.82753487217957   -0.21550027400952
H           4.38566612989821    0.03679651898329   -0.25369054964313
O          -2.62142616485428    1.05254982098130    1.91893358786342
H          -2.22487221819099    1.54050075797088    2.64264030507909
H          -1.95973547568555    1.05820792982924    1.20161249916937
O           0.59844800771401    2.09710267091291   -1.87827192513266
H          -0.00773942652785    1.70347391244951   -1.22475745857312
H           1.28677758206489    2.51661512582422   -1.35405552563770
O          -2.20583044589230   -1.58450256320980    2.20906970764896
H          -2.66416373631567   -0.72369424347049    2.30298729585053
H          -2.15822588935249   -1.72264377815774    0.72991499651481
H          -1.25875763725358   -1.32772430589319    2.30649512435015
O           1.81453322180516   -0.21442991100087   -2.40245973989973
H           1.35493971735884    0.65602914433373   -2.45327229793454
H           2.70660777310811   -0.00043142224096   -2.06093073783635
H           1.20882024242744   -0.80043361600586   -1.17797724985534
N          -1.91214492258124   -1.56543041240439   -0.33496153965993
H          -1.55174905170512   -0.55563881207119   -0.34863868841445
H          -2.69922180396709   -1.71058702106435   -0.95925369394947
H          -1.10807450563095   -2.14146724791463   -0.58746249558804
