    26
        -50.45325133  Gyration_radius:  2.59663490875 Dipole_moment: 1.555
 S          -0.18460355656186   -0.85315248889269    0.59947762722619
O          -0.76775596433334   -1.43783890380571   -0.70591835330928
O           0.85652195693739   -1.74570339549808    1.02726555613517
O           0.42817562129863    0.49050308069456    0.18256687554260
O          -1.23272851136587   -0.59173802527565    1.53295736511621
O           1.64120279695614   -2.42384856691725   -1.60999587621394
H           0.70472682657870   -2.22899287900495   -1.46305231755121
H           1.92878203639169   -2.89433148872295   -0.82182602366064
O           3.43183876373994   -1.05897285981625    1.29027325932350
H           2.52571981738614   -1.42391018742423    1.31096581796378
H           3.59704285861052   -0.68913769707123    2.15834235527438
O          -3.08077699473696    1.22916889780007    0.78208647952198
H          -2.51295802429379    2.03038700426541    0.70114863477963
H          -2.54392052252288    0.59415970449060    1.28820114120044
O          -2.69695233985875   -0.01735413413052   -1.41813351022088
H          -3.45976294714739   -0.57815736547338   -1.57553394437250
H          -2.91767847139047    0.53717601801081   -0.59296031522563
H          -1.56126526146961   -0.84314848848563   -1.02329738870064
O           2.55097998832448   -0.00332149279765   -1.00493162978112
H           3.12434441948698   -0.25006978133087   -0.24895126442611
H           2.33524861915319   -0.86081531855473   -1.44424384604475
H           1.33272583180694    0.32725978885974   -0.35527947280593
N          -1.12252014807384    3.07468201110986    0.40379913508522
H          -0.43815977468428    2.32763610912731    0.33161198724667
H          -0.81614741966518    3.71042101969811    1.12909104450167
H          -1.12207959058063    3.57909944914955   -0.47366335659539
