    26
        -50.45325090  Gyration_radius:  2.5969308147 Dipole_moment: 1.548
 S          -0.53101976081000   -0.87490376229656    0.26982112068561
O           0.20764426364468   -1.63509930795108    1.22625666909998
O          -0.05142689193679    0.58079404180017    0.34508721964847
O          -0.17369182606901   -1.32969557890367   -1.16246280257874
O          -1.96301429135187   -0.91678088686476    0.37503432908824
O           2.89607618933972   -1.39672286571926    1.12803946526555
H           2.99413563112883   -0.43715459316747    1.32932124301921
H           1.98442770493498   -1.61423860684879    1.39109422328210
O          -2.38906269913433   -0.17704607739812   -2.32746769869830
H          -3.07447896470502   -0.52062251875118   -1.74653935264148
H          -1.60093056419657   -0.70320512995609   -2.13106760769191
O          -3.51251732583424    1.20788924669969    0.88196983921072
H          -3.59701000451363    1.34842026563271    1.82580807411085
H          -3.07006829121630    0.34433404674519    0.76748494469945
O           2.31511280515306   -1.44483133886290   -1.36238497319178
H           2.64512908062378   -1.41694812688978   -0.39939660771645
H           2.56385105591468   -2.30586672377049   -1.70574045978453
H           0.86197098464036   -1.36341015696506   -1.26394614459473
O          -1.68238002249222    1.96038951891578   -0.91855712899852
H          -1.96217976827639    1.33334584610566   -1.62801167243300
H          -2.43292855483421    1.97113229420988   -0.28792614803796
H          -0.71002124301355    1.20981446531389   -0.20708401184998
N           2.68104233711562    1.29664539731897    1.41719626599801
H           2.69315132738070    1.75713042587055    2.31824565504161
H           1.71672830469406    1.24978145434800    1.10164963650209
H           3.19146051381670    1.87684867138079    0.76357592257858
