    26
        -50.45440521  Gyration_radius:  2.44948549744 Dipole_moment: 2.516
 S          -1.27915098829606    0.84602941094218    0.01051595240900
O          -1.31902950698623    1.43265491764588   -1.38532489208305
O          -2.48898390012335    1.12008700819023    0.72190344443894
O          -0.96107249050500   -0.56684442448175   -0.06633508794343
O          -0.08409446628368    1.57582411503992    0.65325357329801
O           1.15270409852952   -1.73606226551144    0.98278395678683
H           0.93933381233304   -2.64331177394026    1.20867036971528
H           0.35498007165964   -1.37487900645354    0.53770659415734
O          -0.61952705058866   -1.28615340101583   -2.65918550475894
H          -0.85369920708990   -1.14425801418499   -1.72647881435668
H          -1.04083687538573   -0.57307319392627   -3.14305754876534
O          -2.05045548556931   -0.21611276101384    2.98979346378855
H          -2.33332388100216    0.19733988712539    2.14975003010072
H          -2.57614168662738    0.19537500195480    3.67914364131665
O           1.07725390134928    1.84640539846892   -1.84233067484387
H           1.31341231972173    2.24893598827480   -1.00092166310405
H           1.50515607172125    0.90682431932857   -1.84254693467281
H          -0.30234241918659    1.63165409611366   -1.66576039302865
O           0.54446234514690    0.27497398789611    2.68365434989340
H          -0.35930730995666    0.00780623841582    2.96976192903305
H           0.93906159447794   -0.50768320068681    2.24589887369259
H           0.21619046399465    1.09635139626259    1.54123890422097
N           2.01915387322590   -0.56521695858650   -1.76110534163777
H           2.07454313323563   -0.92244756957587   -0.81291144904672
H           2.88000966955378   -0.79362993780582   -2.24043633565837
H           1.25170390263983   -1.05058927849319   -2.22768044294651
