    26
        -50.45289439  Gyration_radius:  2.64839969086 Dipole_moment: 2.978
 S          -0.67142162170406    0.15135490560431   -0.43544237166142
O          -1.19891298245112   -1.13998796938643   -0.75953742283788
O          -1.33284905256791    1.27847548593995   -1.04683315729357
O          -0.69346297363822    0.34517461752647    1.09327431327267
O           0.80945240361335    0.18155857379605   -0.79847768564056
O           0.34660723989182   -3.15164989054849    2.41075381858085
H           0.95839818607468   -2.71301431992396    3.00376736724845
H           0.72358298704805   -3.06455029952574    1.49303243769353
O          -0.00760099842048    2.71094741146908   -2.93438775400860
H          -0.64607366450121    2.25901033811439   -2.35379648697359
H          -0.01411972391078    2.24104661021094   -3.76923803146821
O          -0.48794368101604    3.12112520783298    0.74627146500692
H          -1.02056643669223    2.62567806438568    0.10081414483974
H          -0.51667564097787    2.60101111711495    1.55335561635316
O          -1.80461402195127   -1.74960026669363    1.85365332213289
H          -1.16480090925531   -0.48916857110337    1.50675349624835
H          -2.00192920273768   -2.03280946314300    0.95166861144818
H          -1.07063076056300   -2.34308954767739    2.17191974518920
O           1.59185510583331    2.53522179649965   -0.79276219539150
H           0.97455778717945    2.94108611527070   -0.13764219345776
H           1.20471815182175    1.17869427239447   -0.77544775198622
H           1.23922339181109    2.80368183795842   -1.66691092444303
N           1.16529699726691   -2.66020251332760   -0.08695328626753
H           0.31604385768394   -2.23892065667754   -0.45927353313834
H           1.41276590574724   -3.43428061000191   -0.69147704363623
H           1.88909967642292   -1.95679224610970   -0.17708449981377
