    26
        -50.45325132  Gyration_radius:  2.59675494055 Dipole_moment: 1.556
 S          -0.96338257799975    0.38612956552888    0.20768105547934
O          -1.55161128650480    0.92740319762314   -0.97523817734940
O           0.55997189550846    0.37934282182475    0.02235997971644
O          -1.29510976431798    1.02879161459810    1.44881427443249
O          -1.34459686102480   -1.10317055406257    0.35838816014058
O          -0.67454779023835   -1.24088299545266    3.02791819379635
H          -1.02799830643779   -1.40203267540933    2.14158096483868
H          -1.14640339545178   -0.46794060510405    3.35230608334941
O          -0.77397958696284   -0.17584114698185   -3.31454535886685
H          -1.17161636451728    0.39896894092898   -2.63701042088080
H           0.18599303975938    0.04585390380089   -3.30075830004211
O           0.47391142697173    2.24633620796196    3.04929535460544
H           0.60109242254638    3.15772706667439    2.78307748855162
H          -0.28254658538251    1.90802235800305    2.53166041010535
O          -0.94328378111632   -2.24910856053320   -1.82626784274209
H          -1.16380185302084   -1.59585499122387   -0.54085223858120
H          -1.73442986831936   -2.72962961860501   -2.07991249793716
H          -0.84743846647232   -1.48692568324042   -2.49485421401892
O           1.57117191530370   -0.05791468482398    2.24655327861872
H           1.43328491333297    0.81125756110169    2.67850585992589
H           0.89560303723885   -0.64975692609323    2.65658341106637
H           1.03862159340627    0.16941878777001    0.95019478571786
N           1.81960393015721    0.37955578865785   -2.72454890462572
H           2.27603229202613    1.24000256763201   -2.99914632622406
H           2.48939502281455   -0.37314909500484   -2.82056154912689
H           1.57606501870643    0.45339715441280   -1.74122346993212
