    26
        -50.45289442  Gyration_radius:  2.64778000397 Dipole_moment: 2.989
 S          -0.57945516242240   -0.50690320622916   -0.27321882556971
O          -1.16829477472745   -1.77282624199581    0.09032693274988
O           0.88403861302064   -0.75331221297317   -0.68803461290798
O          -1.25019311283065    0.22682780432200   -1.30406192608769
O          -0.47745225066093    0.37349445366121    0.96790760965258
O           1.06838069274020   -2.83320541221928    1.18435415130354
H           1.73590324672535   -2.47665460463459    0.59268802511967
H           0.22289630125056   -2.72170043889257    0.71686276364462
O           1.85939343254280    2.62042574047234   -2.34200804609214
H           2.66283805282518    2.60475913734457   -1.81983087658903
H           1.11260235739818    2.81904029700146   -1.71358829429569
O          -2.31979256891394   -2.02887628013443    2.53569761619110
H          -3.18132764684254   -1.60973576201776    2.53810588499161
H          -2.03609086868270   -2.07999742748573    1.60511342153569
O           0.14232732138150   -1.04179609069807    2.90796618389043
H           0.64149805075058   -1.76897914764600    2.46403779490510
H          -0.17606445018168   -0.18889170844663    1.83067172404080
H          -0.74164688072606   -1.42293816208215    3.09268817786455
O           0.93834454224169    0.24119483776828   -2.97042551872085
H           1.35522324344990    1.13958093833685   -2.86360848996807
H           1.00155312675076   -0.37906065489732   -1.65509531318703
H          -0.01558620406730    0.39123944286272   -2.98349756863032
N          -0.19072479604397    2.83218583008589   -0.63851046330131
H          -0.81854431152163    3.62399611240878   -0.70802189096571
H           0.04431750839783    2.71163375275146    0.33978931004729
H          -0.71414347185216    2.00049900334242   -0.90630776968769
