    26
        -50.46489344  Gyration_radius:  2.5541693567 Dipole_moment: 4.640
 S          -0.35146759956415    0.19223302206727   -0.72263192484910
O           1.08006237363573    0.45915740347353   -0.45369783191524
O          -0.46382792301877   -0.43424888728008   -2.11269070509323
O          -0.87954232138123   -0.74279298297571    0.27113306180903
O          -1.08542744890990    1.44162407717349   -0.72240890287356
O           0.32248457149166   -3.08634787790140    0.39888820901677
H          -0.11006565176923   -2.20524252311890    0.44263291537127
H          -0.36905507576939   -3.73034133458849    0.56018942128279
O           3.03455082162929   -0.76468577454780   -1.80490549705767
H           3.16475677071211   -0.21116242281882   -2.57677324410764
H           2.40039266815126   -0.28856340492060   -1.23109039953383
O          -2.91681859756417    2.04975618694892    1.07551223802354
H          -2.30044336333395    1.86270272747635    0.33117191636347
H          -3.77811232790687    1.74944568578334    0.78243998514903
O           0.99634356090026   -2.48766158878532   -2.11521407403416
H           1.87813427941966   -2.06096906013591   -2.06906621711399
H           0.84282003662708   -2.87024027163210   -1.22267640789653
H           0.09978691942800   -1.30374635512363   -2.15112127051552
O          -1.16264313054187    0.63003889481973    2.49708311288248
H          -1.08335163883441   -0.04794961790834    1.78656345334038
H          -0.11768867392478    1.56807385886925    1.99639647886975
H          -1.96920155961315    1.13112285488577    2.25131721354851
N           0.55662309912652    2.17801207164213    1.37548666974909
H          -0.01298460360721    2.86442271306289    0.88277907542996
H           0.92036234908128    1.49247643126329    0.62536135518704
H           1.30431246553322    2.61488618426989    1.90532136896054
