    26
        -50.45289435  Gyration_radius:  2.64766442033 Dipole_moment: 2.992
 S          -0.61878294116783    0.19831920460973    0.49622724649712
O          -0.53670143318183   -0.07012366628106   -1.00284536771462
O           0.81068474056685    0.62006332149597    0.88759926619662
O          -1.50237156689002    1.31446990944504    0.73057526587544
O          -0.95553325801958   -1.02278390629531    1.16439355443945
O          -3.05221151271285    2.21042923598724   -1.31057535785238
H          -2.64199490813916    1.96246874586870   -0.46245886936528
H          -3.79946059202878    1.62419915859861   -1.43660234213831
O           2.69720705453649   -2.77378385422644    0.90897931322376
H           1.91475596668767   -2.89077407000327    0.30378361670012
H           3.38621297901196   -2.35410953916976    0.39170729496016
O           0.27145757197290    3.24129371121112    0.04856279799672
H           1.08217571454329    2.86107078561291    0.39629283682979
H          -0.44930812138870    2.74788617796448    0.47621406371033
O           1.42753941912945   -1.14448735011349    2.53290920583119
H           1.99467728898129   -1.79344679398349    2.03338724071552
H           1.15375044530418   -0.06235067450797    1.59872264640838
H           0.53810620901546   -1.52073064349029    2.54047497765716
O          -0.53050161282542    2.09811842527552   -2.20705832012435
H          -0.49541127501567    0.84117209622975   -1.56779634231949
H          -1.49127888436960    2.28701267696371   -2.16246273608143
H          -0.12602124156765    2.69303867723107   -1.53069885858444
N           0.48569420828484   -2.80786428778675   -0.59320248295406
H           0.04945881039926   -3.69305606785847   -0.82125058489393
H           0.53250146793637   -2.26025471820539   -1.44450697886528
H          -0.14464452906389   -2.30577656456951    0.02962891385045
