    26
        -50.45325144  Gyration_radius:  2.59668591356 Dipole_moment: 1.558
 S           0.55765432612055    0.81001907624022   -0.39283232670507
O           0.17093398218972   -0.64624896516739   -0.10142223356349
O          -0.71929061302540    1.62229149856417   -0.08338187377829
O           1.60481769419086    1.17900801968629    0.50470376741188
O           0.82138758967515    0.96670328167558   -1.79613523039848
O           0.86890621904373   -1.04328116334837   -3.56571544410027
H           1.73799914885572   -1.44490701489038   -3.59873039945956
H           0.95658048417838   -0.23406429877480   -3.02532697577263
O          -1.92041124610821    1.09460081554511   -2.50667005648244
H          -1.19812842697185    1.32195220992576   -3.09987182943782
H          -1.66745523767985    1.45682989906879   -1.64565234038446
O           1.16255166293609    0.70320058798746    3.12645586132272
H           1.57039252547411    0.92939711750586    2.27201861208475
H           1.07902883472779   -0.27851873151331    3.11327159521357
O          -1.25279906625878   -1.42175253170447   -1.98089529443495
H          -0.57523635363312   -1.53876097889242   -2.67978611455789
H          -0.46445391679963   -1.01550976513354   -0.87221348674141
H          -1.72385632875521   -0.58990334963334   -2.22747674224431
O          -1.14202584025578    1.52272751835106    2.37806591836323
H          -0.26448437271023    1.18613889239863    2.77009022588823
H          -1.26051291603633    2.41404660975056    2.71373447891488
H          -0.91651698809067    1.57280955477668    0.93765722653089
N           0.71690902261034   -1.92160891512516    2.58300569605270
H          -0.11984853986817   -2.34219146144479    2.96683706949825
H           1.45055422134892   -2.61851731281960    2.59653470895040
H           0.52730413483207   -1.68446060303377    1.61373519782481
