    26
        -50.45325148  Gyration_radius:  2.59672835731 Dipole_moment: 1.557
 S          -0.85007913195444   -0.60588503922549   -0.17972635225309
O          -0.52004396516052   -1.68618550966306   -1.05276399504151
O          -1.33715393079486    0.61023073483103   -0.99836972083143
O          -1.84908212631495   -0.86244871677919    0.82000887870809
O           0.44201366331265   -0.12620324005535    0.49505294982501
O          -1.41818497055512   -0.75338432660477    3.46119367924034
H          -1.09235543803709   -1.59348162192200    3.78628402251388
H          -1.69609195242881   -0.90157103469745    2.53631472542086
O           1.49089016008833   -1.24472078436273   -2.80139108619146
H           2.23686669601053   -1.09648197207736   -2.17500835566295
H           0.79217951457651   -1.65624218317887   -2.26288458677205
O          -2.51986677408511    1.87279198763862    1.14657070012957
H          -2.24250636744590    1.58575977397881    0.26495017959768
H          -3.03910198856554    1.14378098110859    1.49904783755441
O           0.28351147617918    1.00987254326459   -2.85908261353762
H          -0.19599702092546    1.06547768651792   -3.68863644433026
H          -0.65979175267274    0.79843141756288   -1.76599299751983
H           0.83004796914817    0.15198288344875   -2.90429923826135
O          -0.21399436880907    1.36911313289327    2.36447916963019
H          -0.53681182816855    0.70977405732288    3.01426785197266
H           0.21041229496734    0.54175681669797    1.29132187129472
H          -1.03349452216639    1.78607098883899    2.00497257110631
N           3.15364451682999   -0.61918172383580   -0.74492693953281
H           3.68569042868585    0.23857281847063   -0.81961402457421
H           3.73171836411938   -1.30488831051212   -0.27614379697753
H           2.34758105405093   -0.43294134975018   -0.15562428553261
