    26
        -50.46437126  Gyration_radius:  2.49458281108 Dipole_moment: 5.809
 S           0.07628730401066    1.02066414933750    0.44817345136535
O          -0.83292717324439    0.47979393559174    1.44404085340557
O           0.78433135892694   -0.07407217577232   -0.25131737396496
O          -0.55596425896220    1.90314057187411   -0.51054700684824
O           1.14412982754363    1.80552453448328    1.25680748609472
O          -1.32956196203030   -0.53272087133238   -1.79024335479764
H          -1.55756431590249    0.37056474419863   -2.02920310084773
H          -0.48113576429260   -0.44822721810943   -1.30812783118067
O           0.90827040614864   -1.50539001085849    1.89035008382057
H           0.38450383791574   -0.83684923950569    2.35626075017643
H           1.10299227174537   -1.04038605914657    1.04028540904671
O           1.31153187140656    1.73376561339502   -2.35232590303871
H           0.50996903911128    1.88598485242879   -1.80499894584289
H           1.55961658965562    0.82340208848192   -2.16199854310419
O          -2.59905732613152   -1.15616612262219    0.44305652825973
H          -2.37649886618447   -0.96816835929935   -0.49915424341464
H          -1.74347836510916   -2.29002179739965    0.72444445917211
H          -2.10937049448602   -0.45011871455055    0.93217133972418
O           2.57544164462308    3.10753770702146   -0.48571146192125
H           2.22656967702992    4.00053094287438   -0.52593508388576
H           1.74987255091783    2.29617172487498    0.63387644172677
H           2.25713603626143    2.65081008070494   -1.30415369526554
N          -0.94902195927689   -3.05217919397451    0.91660463156141
H          -1.28074380221759   -3.78539430417776    1.53426252157390
H          -0.13630283875832   -2.49582374646953    1.37151921966240
H          -0.63902526870301   -3.44237313200704    0.03186334852009
