    26
        -50.45241026  Gyration_radius:  2.60995677439 Dipole_moment: 1.149
 S          -0.97696286908707   -0.37832826681773    0.57371662830518
O          -0.92965467445843   -0.66773358545447   -0.94402015821595
O          -1.98943150397384    0.58403773253645    0.86201321893545
O          -1.06861400207245   -1.64622051332997    1.23561851201596
O           0.39099913871698    0.26561008221624    0.87504429627459
O           0.50760023949598   -3.72129334858196    0.82642296957548
H           0.21996662764889   -4.47476685552654    1.34322050768023
H          -0.14421088750458   -3.00766537407036    0.99838070769266
O          -1.65094803929963    3.03803528477499   -0.21434437915333
H          -1.97918721764442    2.28349273371575    0.30530011937767
H          -0.82280156105847    3.31544170107109    0.24244621920968
O           0.97384023274239   -2.59086480273023   -1.71154907950352
H           0.76528058856173   -3.32019895519039   -1.11030654602837
H           0.19911264057487   -2.01302737128883   -1.70810315396934
O           2.12051253581621   -1.49623036886092    0.40645992779732
H           1.92311412563955   -1.78078717485380   -0.51998119062457
H           1.13481921992842   -0.43548761406738    0.70722625770100
H           1.88198446033884   -2.27351264968144    0.93333582866011
O          -0.86288191770380    1.53291906637903   -2.12502703599077
H          -1.53422867575465    1.55556502505750   -2.81049363944182
H          -1.15222438392104    2.21099977420739   -1.42209176311213
H          -0.89043160939336    0.24265716753643   -1.44819637567220
N           0.73947176891550    3.27125792049347    1.05542079037247
H           0.80675796511039    3.66340497406363    1.98592264822969
H           1.54440871161053    3.58222023969822    0.52657007943435
H           0.79370910675711    2.26047516868006    1.13701462040774
