    26
        -50.45289439  Gyration_radius:  2.64789459482 Dipole_moment: 2.995
 S           0.19180865483894    0.53487037897702    0.58675846670279
O           1.26525895859426    1.44060468042168    0.91664401266656
O          -1.00107628252502    0.66051168165425    1.36920986429852
O          -0.16862919027493    0.70003764952510   -0.88595871800591
O           0.72393760648247   -0.90749326494289    0.69051693208862
O           1.92944355761296    3.38715538472586   -0.85598751102510
H           1.29015774491032    4.09960619833326   -0.81499915838861
H           1.76318135252365    2.81710417544073   -0.08368361698272
O          -2.53930765250798   -3.00772305278539    0.56098229070995
H          -2.74240046424069   -2.14247831729645    0.11138564726329
H          -2.11426139809403   -3.56541523436878   -0.09227661504001
O           3.24737364038574   -0.04294915553654   -0.17598889571320
H           2.93994105137577   -0.92719848158563    0.03950895226388
H           2.74038686539606    0.55417635134247    0.40045242329201
O          -0.88551492054077   -1.92768633152534    2.29364475213130
H          -1.31374023914801   -1.08250316000339    2.48064619879441
H          -1.53082078840114   -2.44376171573716    1.73711992590278
H           0.11290645593440   -1.41800468050190    1.36537473149208
O           1.91282914885511    1.06168521662601   -2.18528023534173
H           2.04537161298394    2.01053414264001   -1.97803460246792
H           2.57408972561640    0.58753232670603   -1.62598039822329
H           0.70464726195638    0.82441500116497   -1.49680844987427
N          -2.80444913199014   -0.57653710038635   -0.52043606203253
H          -3.72746637393207   -0.17157916096954   -0.62033402592569
H          -2.31080978904425   -0.43486935293363   -1.39399023171542
H          -2.30285739678595   -0.03003416896481    0.17751433317597
