    26
        -50.45289448  Gyration_radius:  2.64785383489 Dipole_moment: 2.991
 S          -0.43819891936920    0.44890421423257   -0.52165504262505
O          -0.11871349296065    0.60537923053828    0.96141476333220
O          -0.27322967980115   -1.05911636841924   -0.79097711626467
O          -1.81802397175255    0.80360468667031   -0.74949424679569
O           0.53289436493797    1.17788641841882   -1.28098949960584
O           3.58445628928467   -1.47080742524924   -0.89758083647953
H           3.48561108609914   -2.22551619991096   -0.31523852062655
H           3.40099001640007   -0.65951924121993   -0.34957789782956
O          -2.87076896037717   -1.51553598207373    0.16477653635425
H          -2.21139849687597   -2.14002375207411   -0.14836653003140
H          -2.71313798330627   -0.69905375768179   -0.33954863232224
O          -3.19559332776901    2.05220459513120    1.22859701223492
H          -2.82930284532865    1.69930467628647    0.39769347512584
H          -2.94597272582816    2.97633667709616    1.26874268398503
O          -2.07716652377610   -0.13842126142437    2.28902797367462
H          -2.62946434076938    0.66516253659816    2.18870481195514
H          -2.48291043797250   -0.80002896960404    1.67872437254723
H          -0.92528719573692    0.26263021055717    1.58057746358738
O           1.53924081878790   -1.07377337035252   -2.49808008445860
H           1.53494806459110   -0.11190133938440   -2.58484608296425
H           2.37389607343193   -1.30002484351596   -2.00342035734724
H           0.46689819478869   -1.16707134967931   -1.51939946726742
N           2.78745720957039    0.69025076079043    0.46018383592477
H           2.32431421477208    0.50167093936590    1.34150486927962
H           2.06227947340166    1.02422593362249   -0.17225077063010
H           3.43618305557079    1.45323298127783    0.61147727724013
