    26
        -50.46489355  Gyration_radius:  2.55393193185 Dipole_moment: 4.638
 S          -0.61972540750185    0.19132513318577   -0.51153282629681
O          -2.14476363039547    0.08376530994322   -0.51043581692398
O          -0.04289884411871   -1.13957746868411   -0.31995500227479
O          -0.20251885213164    0.77747764803783   -1.76932803521086
O          -0.22140730247253    1.07930610319231    0.60453470120291
O          -0.70723883680669   -2.36530357305793    1.91812837604730
H          -0.80885265599696   -3.29159357356317    1.69295945218167
H          -0.37103841371280   -1.92308240314986    1.10767208703091
O           1.62561960977429   -0.29682919690854   -3.33714297479885
H           1.21378132781426   -0.89815645957941   -3.95901453115331
H           0.88647706113360    0.12291156760565   -2.84074553078696
O          -1.85175482768887    1.60291936818732    2.65686447127348
H          -2.37209948987819    2.34941587233350    2.35493287853949
H          -1.16796558175701    1.45197803996094    1.97291406859339
O           2.51340366363827   -0.92604161726613   -0.90213861475781
H           1.61164663356493   -1.18784374553625   -0.60355688205378
H           2.43227733423212   -0.88569246789556   -1.87878090487677
H           2.41757552495144    0.52585977671223   -0.57840462700739
O          -2.82233680834000   -0.74102151668489    1.77185233259307
H          -2.12835298061514   -1.40451773030901    1.98326523101946
H          -2.59786834357775    0.05144377631235    2.30413055153766
H          -2.46865806727398   -0.28323045934703    0.40360369836733
N           2.07919373005711    1.56165550571370   -0.41992799193122
H           2.75670695920491    2.13360366713891    0.07450626498997
H           1.14813390389671    1.45860855889945    0.11626758366751
H           1.84266428400338    1.95261988475530   -1.33066792897288
