    26
        -50.45325137  Gyration_radius:  2.59649206691 Dipole_moment: 1.554
 S          -1.01834345702402    0.28853036390916    0.04547836282779
O          -1.02033394746112   -0.53513121703174    1.35216647872504
O           0.36771338350180    0.04275163821771   -0.56540789520212
O          -2.02743774135538   -0.27785141969774   -0.80560392497942
O          -1.13201704144025    1.68066084579567    0.34102731725294
O          -1.55221876161572   -1.36448621779772   -3.20687559608156
H          -1.87742019101615   -0.93657984887761   -2.39102570744513
H          -1.56500293870003   -0.69381852167638   -3.89079172355373
O          -1.60889820842100   -2.92588287408804    0.11496685442875
H          -2.36099604123297   -2.65182184098820   -0.41844942777963
H          -1.47158876065786   -2.20865115918833    0.75001956704854
O           0.87410280747932    2.76637828235653    1.78732934999587
H           0.07911387947550    2.63356324777405    1.24148595123764
H           1.62933837195397    2.62724125584217    1.16988354437728
O           0.60331600982213    0.50147230240321    2.94457490343935
H           0.78631998621688    1.42276698889011    2.55132309308036
H           0.16659209336070    0.65158881286979    3.78592699792744
H          -0.33302884683673   -0.12382394276054    2.01749595873485
O           0.35043851185953   -2.23923329210633   -1.54140383612517
H           0.41641126045954   -0.93869443683024   -0.97592606836076
H          -0.25530094686615   -2.71326673185327   -0.92247913824958
H          -0.18893817985025   -2.08432467575268   -2.34525636858257
N           2.67721906518290    1.92469536149919   -0.06300052341169
H           2.00841179027783    1.23613216651208   -0.39500991264829
H           3.49213557463813    1.42652900842447    0.27176409654717
H           2.96041231822409    2.49125590417422   -0.85221233321492
