    26
        -50.46437141  Gyration_radius:  2.49427323721 Dipole_moment: 5.801
 S           1.06465627275176    0.33650555630035   -0.04989390340508
O           1.89413529940879    1.28183754290297   -0.95996660421821
O           0.70033737939469    1.14215135909960    1.10303306975861
O          -0.14362820342000   -0.04590611871655   -0.81345610917093
O           1.84625523402743   -0.83888493648853    0.27450980383182
O          -1.29475612610138    2.21015633466386   -0.32847567852697
H          -0.95156497882658    1.38466906557161   -0.74988190806746
H          -0.54768654465961    2.45954120532617    0.23551598871459
O          -0.69317125761323   -1.98165551261165    0.91797900921133
H           0.18185481624682   -2.36924904920502    1.01371652657488
H          -0.58861313306625   -1.32399869736912    0.19965699889955
O           1.35178162377101   -2.15194754512414   -1.94813039048920
H           0.46269455596667   -1.80546642868636   -2.07444283564331
H           1.61184167471779   -1.83245802451602   -1.05627990977166
O           2.89095679478194   -0.20609498750746   -2.84995302062369
H           3.78731370959499   -0.42925590846585   -2.59015186899133
H           2.34895205575392   -1.01957903036345   -2.69447395816323
H           2.27104518275259    0.76950182864778   -1.72875312364973
O          -0.96020806624125   -0.06003880796568    2.71397163610534
H          -0.90538098054985   -0.93718890361983    2.26675397843007
H          -0.22270559997014    0.44906569138644    2.29640187025674
H          -2.09005679093662    0.54124367965358    2.03561689587833
N          -2.85938928043089    0.99904439110443    1.36703647967160
H          -3.49380881345263    1.59625297668246    1.88664723401591
H          -3.37040775175647    0.26132266040402    0.89187443630526
H          -2.29044707213909    1.57043165888490    0.64114537306743
