    26
        -50.46489343  Gyration_radius:  2.55410922599 Dipole_moment: 4.641
 S          -0.81421131244751   -0.13975069346640   -0.02242801456293
O          -1.46322725493380    0.27723548852284   -1.24904152741661
O           0.23585375847618   -1.12625467792640   -0.27715188664360
O          -0.24094808879121    1.04238424441531    0.66076050511375
O          -1.86907126956461   -0.75388245204293    0.89812025366928
O           1.51639860407471   -2.01593644885549    1.84934355830911
H           1.67759714028180   -2.94753961191188    1.69089760482552
H           1.12235287315556   -1.66296055279346    1.02136941476543
O          -0.61653679100407   -0.41600606170886   -3.64874155208582
H          -1.03152386003497   -0.17795678631545   -2.78847707250993
H          -1.03069831366937   -1.23635447094566   -3.91987595002853
O          -0.44317809758201    1.39713425820014    3.30220646856663
H          -0.28415139807581    1.34768455789714    2.33765978214699
H          -1.28307051932836    1.84622628132563    3.41223552276939
O           1.66054199762297   -0.18652524623754   -2.27894033473696
H           1.28491564061954   -0.66965083358244   -1.50673609174178
H           1.02911660121285   -0.38034653854633   -3.00398526577600
H           1.20242400726031    1.18115931354532   -1.90166629566369
O          -0.72888621230989   -1.26566494185145    3.08590791517920
H           0.15235986889491   -1.59830373016969    2.80432445748706
H          -0.57366021191788   -0.35197182270735    3.40660713053269
H          -1.43575705231498   -1.00987181269943    1.80469499124337
N           0.63953594300415    2.04987463537666   -1.52646948303461
H          -0.20501885498963    2.13781154874290   -2.08974685012490
H           1.18277717354137    2.90744535829301   -1.52008551050809
H           0.31606561882269    1.75202102544061   -0.54078176977346
