    26
        -50.45285830  Gyration_radius:  2.62805978668 Dipole_moment: 3.007
 S           0.24568694885970    0.41107212536732    0.73520224160957
O           1.46910594779261    0.49899714776138    1.49289292042476
O           0.58038025920579    0.14060115119969   -0.73065018091642
O          -0.51509691971629   -0.84371967901163    1.19973303447196
O          -0.62171009492741    1.54889644538851    0.79467404434450
O          -3.60913245403544   -0.25655143738739   -1.16569312715859
H          -3.34484443481127   -1.08474400681597   -1.56897247942822
H          -2.99507406449860    0.44282831620974   -1.52135257697852
O           1.90034082577813   -2.16961147807829    1.67227780681665
H           1.86041228100308   -1.21707373595886    1.86324423805522
H           1.00175493231961   -2.49012174411511    1.78425904421051
O           3.83520267342351    0.61905436830670    0.16123092094285
H           4.04362875933401    1.51850136723094   -0.09395523883572
H           3.08078441206498    0.66926416218351    0.77502375962937
O          -2.84737994159382    0.01934437411056    1.33332982954026
H          -2.56174132931743    0.94158780380741    1.33970307179556
H          -3.26177340761221   -0.13122949048435    0.44009261553224
H          -1.51998855775063   -0.57978399740952    1.28839910314568
O           2.46796764596952   -1.47215071163895   -0.82559055346577
H           1.36466600504083   -0.57678440618320   -0.82500461132411
H           3.20054082386167   -0.84394295852590   -0.66672057442963
H           2.35864509115261   -1.95129242915294    0.03064218772911
N          -1.75912867004094    1.53779386821580   -1.86669857886516
H          -1.99690461134959    2.43643703781643   -2.26810816640270
H          -1.02352864409344    1.12892563350958   -2.43053700102430
H          -1.35281347638442    1.70370224365000   -0.94742173995350
