    26
        -50.45325146  Gyration_radius:  2.59632664009 Dipole_moment: 1.556
 S          -0.38253616437164    0.67570628900427   -0.72048572018730
O           0.61817746566890    0.99687507321367   -1.68676665909915
O           0.32329271231838    0.20328640228691    0.55757067824883
O          -1.32560210573824    1.70955076965506   -0.39603912122743
O          -1.20160065036639   -0.54732002035020   -1.18854758023170
O          -3.29518782536212   -0.09778933859330    0.54516246904708
H          -3.45650770983389    0.83336190238654    0.36556014544535
H          -2.72375403400371   -0.40128680204810   -0.17449702383120
O           2.49128485858585   -0.89387200916779   -2.14539848816457
H           2.90820193487333   -0.94601763357778   -1.25410914370923
H           1.98128373242067   -0.06479050922489   -2.13308787112256
O          -1.60261538110701    2.80082229386731    2.03388243304706
H          -0.99129079696357    3.52918921195191    2.14976419589357
H          -1.55913545117432    2.54816609908984    1.09112327623918
O           0.38722095006091   -2.33104160005745   -1.92334096162411
H           1.27681788046527   -1.84643277227783   -2.02732227263756
H          -0.54970483274312   -1.30527622758857   -1.47989839790463
H           0.14085199598985   -2.62989505790738   -2.80149579839509
O          -1.37729999043310    0.15531992339764    2.36484907812722
H          -1.47362990034360    1.11451702323371    2.54296556602760
H          -2.19160073419937   -0.08785315594589    1.86234497807820
H          -0.37582406702219    0.14218253313741    1.35847953322721
N           3.12929885917315   -0.91557554537236    0.49585202464668
H           3.17685238832523   -1.81507504367703    0.95738804586625
H           2.22637308396723   -0.50401660916533    0.71266702765097
H           3.84663379179824   -0.32273518629001    0.89337960657394
