    26
        -50.46004791  Gyration_radius:  2.42154160652 Dipole_moment: 1.657
 S           0.83505025296374   -0.25929858498443    0.04542062035857
O          -0.45106708968015   -0.03453903380378   -0.63383127086673
O           0.63955260938671   -0.91527872114505    1.33213965976317
O           1.60447198901850   -1.29754316265945   -0.82037224085118
O           1.60013147143921    0.96324483384552    0.14181483089393
O           0.74577212327681    1.99940118116612   -2.13577958521184
H          -0.13823661132141    1.62159847772928   -2.08911217425972
H           1.12327409219015    1.83774506718129   -1.24735140595297
O          -2.34532220254396    0.52413853428377    1.12507333235358
H          -1.72574178927234    1.07857227885166    1.68451068284286
H          -1.85749599959852    0.45816918043370    0.27807536175294
O          -1.25014839706386   -2.52843154335971   -0.70799127278882
H          -0.45229077257726   -3.04588096445718   -0.83877943704423
H          -0.98980448625961   -1.59450246591760   -0.87408803942584
O           2.23904596441893   -0.00753078579119   -2.96403489749874
H           3.15047669435725    0.28679565786814   -2.90290079055873
H           1.86831353631463   -0.86083618149935   -1.68397253668441
H           1.67929715350628    0.80147090405723   -2.83685396019992
O          -1.65694229293631   -1.77389798776869    1.71250421332332
H          -2.12030653759927   -0.79014430766364    1.54068631430538
H          -1.71421639382392   -2.25518060590336    0.82468704749483
H          -0.65409230464094   -1.48744288036968    1.70782665440589
N          -0.29037994215278    1.74297795374829    2.25695963930317
H           0.01176043959025    1.25619514487949    3.09236597961657
H          -0.25719506035076    2.73669154236413    2.45161689678219
H           0.40609354335912    1.54350648889951    1.54138637813662
