    26
        -50.45440519  Gyration_radius:  2.44957685204 Dipole_moment: 2.518
 S           1.41442436989085   -0.09878808642927    0.58423077549004
O           1.33698541696679   -0.62195091055612   -0.86284801323142
O           2.63527699038619    0.61174002950571    0.80697543823899
O           0.22830988376185    0.69387023270879    0.84527908923271
O           1.36350120127529   -1.37129873489834    1.40417035120958
O          -1.35647611691059   -0.59424051178322    2.63039511267833
H          -0.76292057479502   -1.23212890638508    3.03154035900453
H          -0.79178761203048   -0.01072187686408    2.09604790048508
O           2.21555384737975    2.80170485589031   -0.65868216049821
H           2.39550037563416    2.08983249370803   -0.01253563705332
H           3.07150811154582    3.15373845667550   -0.91210319669037
O          -1.59422091073534    1.38116402666126   -0.92708360401813
H          -0.97690813196011    1.14465499568659   -0.20047845131423
H          -1.98807393434095    2.21846481970733   -0.67518463999548
O           0.73446152081313    1.32350462843110   -2.29880192574859
H           1.11697600839136    0.15888035453165   -1.53406250272526
H          -0.19977250421687    1.43104399950034   -2.02399483163287
H           1.24634926075252    2.01792596375533   -1.82367629303671
O          -0.09002462527030   -2.82011382379095    0.02189853189112
H           0.73342561134473   -2.05699045480923    0.87082080754531
H          -1.00388426544257   -2.33977162403415    0.01868570250878
H           0.30947937373368   -2.64342551726611   -0.83535783012573
N          -2.30498886323133   -1.47765433429883    0.05945718114159
H          -3.18725622707338   -1.94331819871180   -0.10719313302363
H          -2.26135828214661   -0.65162745939182   -0.52840436148027
H          -2.28407993372388   -1.16449440753608    1.03090536114020
