    26
        -50.45440519  Gyration_radius:  2.44953949928 Dipole_moment: 2.517
 S          -1.34242207098420    0.61816124976597   -0.40959958666004
O          -0.94349810707827    1.68441628869886   -1.40862445456308
O          -0.46933853034463    0.68601772454571    0.74643075379255
O          -2.73114648137461    0.71024974047940   -0.08114057180449
O          -1.04033710865349   -0.68908271836862   -1.16694113075477
O           1.13724151100310   -1.22419313236397    1.58664601738939
H           0.58830255006400   -0.45294365331254    1.32449227418262
H           1.24313261418810   -1.16025008258125    2.53766154498339
O           1.34797111756809    2.67014169895482    0.40322463608232
H           0.95978444210882    3.20658332419793   -0.29081506453025
H           0.65753937780763    2.03660501672941    0.66192395439951
O          -2.93215166098295   -1.18640978148929    1.78495145263165
H          -2.91630186949173   -0.40294805308924    1.19962456177933
H          -3.84172057385807   -1.49199461772451    1.79595368948156
O          -0.99510657844565   -2.50976492462981    0.53400806800015
H          -1.03847133739448   -1.51218324015032   -0.51046542558937
H          -0.15233853126627   -2.28106098180482    0.97824792840255
H          -1.71631593585178   -2.17989819460666    1.11809304311236
O           0.94700197795113    0.60838168317153   -2.58774324901801
H          -0.10931455855511    1.29429623549131   -1.95984273553688
H           1.66923104426672    0.48743189170094   -1.85988654706539
H           0.55335225021740   -0.25917163070983   -2.72246484471603
N           2.64085520040611    0.32280582915748   -0.64901732423870
H           2.47940396768097    1.20771592162837   -0.16617944929097
H           3.63007705734656    0.24074024698698   -0.84330171882982
H           2.37457024368657   -0.42364583069280   -0.01523584161829
