    26
        -50.46437134  Gyration_radius:  2.49407820062 Dipole_moment: 5.799
 S           0.14063762917896   -0.47934497610592   -0.99977774433986
O           1.44893126626812   -1.09783844782045   -0.94130666923085
O          -0.19919545053303   -0.11164778642453   -2.46924632793954
O          -0.94314192525129   -1.34330494900511   -0.56389885438971
O           0.13506907536195    0.78281728500689   -0.22762794280159
O          -2.44104955521492    0.83292240585723   -0.12462405748414
H          -2.46711353696323   -0.02847536283121   -0.56688434838748
H          -1.48428168596368    1.06536880231364   -0.21027501373342
O           1.32004732601531   -0.40512873362984    1.82952009229562
H           0.90852633071112    0.15161625277472    1.13661238476452
H           2.00467039912575   -0.89508278088685    1.36453678514834
O           2.83753436750013    1.13386828368856   -0.95621968311291
H           2.19042028730042    1.65889280236249   -0.47443731270266
H           2.49085349848566    0.21607150010144   -0.90569047417298
O          -0.84403628511228   -1.91678792248489    1.97745553594076
H          -0.92175613595039   -1.92239462034322    0.99187540891980
H           0.04673442769704   -1.52146025763851    2.12759873995219
H          -1.71292195151248   -0.79958595344232    2.28664077315415
O           1.88907642762418    1.11887365074715   -3.41979203415444
H           2.40360143099101    0.46823518179506   -3.90221432703897
H           0.55558340980626    0.39958124698638   -2.87508829742918
H           2.36796275543083    1.27081244367789   -2.56692524814674
N          -2.30872803642136    0.14056907956039    2.38400417680860
H          -1.76631485302567    0.82787057863919    2.89838691640411
H          -3.19751230023730   -0.02977016424847    2.84248273625471
H          -2.45359692531948    0.48332247134849    1.36489481542882
