    26
        -50.46814337  Gyration_radius:  2.48681393287 Dipole_moment: 4.355
 S          -0.70972044418545   -1.18181106605574   -0.16040998004831
O          -1.55748790207322   -1.72028445006706    1.00086915395302
O          -1.26867993073970    0.10514486164021   -0.59449954459408
O           0.65730978882759   -0.95407111977851    0.36244187239446
O          -0.71469028658323   -2.15473788366112   -1.22281850262648
O           1.45530054406677   -0.81295080299063    2.89332480509748
H           1.61132942931935   -1.71081822111009    3.19099027052101
H           1.26383864432954   -0.87296262705397    1.93428313037808
O           0.02330975165383    2.29135454278881   -1.40207014051098
H          -0.04600238114503    2.78751767751409   -0.58014538888461
H          -0.59148778145387    1.53672002044074   -1.28181176844682
O          -1.42073936438413    1.97319363096677    1.22454870268117
H          -1.40560592207486    1.25015462942639    0.55059277154016
H          -2.32854813990817    2.27899320823197    1.26406662983385
O           0.48068532027463   -1.18307696903194   -3.31086260960214
H           1.40715179781950   -0.22941799634201   -2.40018052796153
H           0.02872913611230   -1.67575586700912   -2.57693919660377
H          -0.22539424861210   -0.77417035618729   -3.81533463965042
O          -1.14365364598014   -0.10908251333378    2.93516948871831
H          -1.18188911207812    0.76807338606393    2.50534867710801
H          -1.43746341300001   -1.09827485761857    1.79656411327068
H          -0.19760670473392   -0.27155102366651    3.13203714700983
N           1.78097326178756    0.31999708528914   -1.57620306121464
H           1.29407707646082    1.25238307566599   -1.55746154023067
H           2.79132983561323    0.40215569618583   -1.59600996161453
H           1.43493467068820   -0.21672205030912   -0.71548991051862
