    26
        -50.46489350  Gyration_radius:  2.55413194481 Dipole_moment: 4.638
 S           0.80270483717735   -0.09092806538386    0.16967318442249
O           1.68447984774134    0.11319109439945   -0.96193129028742
O           0.07741526975136    1.16586805112402    0.46498531632478
O          -0.15231715760068   -1.17097673676032   -0.07955085875729
O           1.65478575338903   -0.44404321491831    1.38898250510752
O          -1.82914561993900   -1.69861992884813    1.88600207328701
H          -1.93452076572434   -2.65145187782947    1.89577583522312
H          -1.27869315029165   -1.49334007919424    1.09840848094351
O           1.36971452744593   -1.09530833651197   -3.28474331067074
H           1.59184109528904   -0.66528982004486   -2.42763807633918
H           1.84583937009488   -1.92675374181626   -3.29038085900456
O          -0.27706737824627    2.05061813050819    2.96204903366007
H           0.51457157735982    2.56079844240759    3.14190470093329
H          -0.23227515221090    1.80092798566975    2.01663025033673
O          -1.14635941109706   -0.73644424853845   -2.47598839662272
H          -0.80296487357483    0.70429609742481   -2.30616631791523
H          -0.37418095702014   -1.03168562711589   -3.00384564947791
H          -0.93088172065874   -1.03263930052920   -1.56131950176048
O           0.09464949862550   -0.58016550351496    3.36280976609762
H           1.04751968548450   -0.54121969364680    2.22371946199631
H          -0.14070935710809    0.36787444580247    3.44986979612837
H          -0.70240997394084   -1.01534982438788    2.98608942245919
N          -0.34767308438744    1.66335468285893   -2.01422390229178
H          -0.23093714269074    1.58759784893838   -0.94388169316092
H          -0.89715124983320    2.46977892405515   -2.29409116857037
H           0.59376554196933    1.68991029585276   -2.40313878206290
