    26
        -50.46489348  Gyration_radius:  2.55414594126 Dipole_moment: 4.638
 S           0.12869617990441   -0.39344190240887   -0.71415269025438
O           1.50582625777077   -0.77692833955102   -0.95108954763151
O           0.03160036483209    1.08232510666045   -0.64009316831961
O          -0.71505643365191   -0.86505497133009   -1.89864944563108
O          -0.39247503512241   -0.98976664954611    0.51607425826470
O          -1.94327404698733    2.43887577466538   -1.82430599895123
H          -1.62097988274375    2.58727247504052   -2.71497590637585
H          -1.20038051713146    2.03894116001796   -1.32802890253466
O          -2.89955285389821   -0.41674181577397    1.09879789360361
H          -3.27555292417116   -1.21773459523398    1.46760562298152
H          -1.94333802952373   -0.60010191391993    0.96686407533014
O           2.96447602284363   -2.10787462671655    0.79702760255959
H           2.46110409918556   -1.67594641240615    0.06976138504455
H           2.86482972261059   -3.05074505742776    0.65888516765716
O           1.43580980445214   -0.58350989543116    2.36315999023115
H           1.91628688450898    0.58048106769884    1.56525029872358
H           0.63077445858523   -0.78488720729029    1.83195201324424
H           2.08128155609269   -1.26295219525780    2.07381248382911
O          -3.05025081992583    0.00795724579291   -1.53368346757629
H          -2.88867213126872    0.96589254967223   -1.66773819968157
H          -1.69625816413863   -0.55326100418791   -1.77548079995974
H          -3.18005818241948   -0.10359343251855   -0.56556171153498
N           2.16893107756067    1.28902116096867    0.76123467658003
H           2.87028967489059    0.84716447095773    0.16864378317129
H           2.47735400260948    2.19289907858695    1.10546716960044
H           1.26858891513794    1.35170994893883    0.16922343762742
