    26
        -50.46489362  Gyration_radius:  2.55395643123 Dipole_moment: 4.636
 S           0.28215495009723    0.51539529755517   -0.57987190916893
O           0.58625113607183    0.57992028089924    0.84983043207357
O          -0.65387551392952    1.54915859540116   -0.97337131693136
O           1.57279837392100    0.70260111100987   -1.37781232106915
O          -0.27742720698577   -0.81342610137944   -0.91731086119901
O           2.28872573184528   -1.22484089252247    1.74279385987776
H           2.82721015819181   -0.77934250566497    2.39896608368089
H           1.59584378981186   -0.58121303965261    1.47625055037912
O           1.20872362578773   -2.74378325768879   -2.01691301745415
H           0.58721471800180   -2.12103234560163   -1.58796321804227
H           1.15474135249432   -2.56990518702432   -2.95820021933157
O          -1.88865496176251    3.12161880005532    0.74668344870639
H          -1.41209970886064    2.62244432983434    0.04483280895368
H          -1.36345730969327    3.90587097485519    0.91119971469334
O           3.07703201796813   -1.23714863232516   -0.80904720947700
H           2.23768599109646   -0.05993669460682   -1.15089290742113
H           2.92576810343961   -1.36055487799581    0.15449036342034
H           2.58089334475972   -1.96089641292331   -1.24692776331948
O          -1.72444677419684    0.81992169124537    2.08374827988980
H          -2.36879237064405    0.17752089160940    0.90307152734730
H          -0.78691386923250    0.68858239066663    1.81068850447026
H          -1.89694439253926    1.76306100333467    1.87679164498409
N          -2.62628292019295   -0.18225263423890   -0.10530599562572
H          -2.85105184730185    0.63136673903342   -0.67606996200224
H          -3.37609271489107   -0.86663603474862   -0.10751867747603
H          -1.69900371325804   -0.57649349912776   -0.49214186996016
