    26
        -50.46516750  Gyration_radius:  2.53898611747 Dipole_moment: 5.799
 S           0.48062479852019    0.03752779602256   -0.39048071895331
O           0.47093627429578   -1.12361016959677   -1.29514265875147
O           1.52089018834217    0.98771123780328   -0.68890668699155
O          -0.91418307467638    0.69276090146909   -0.64558494578033
O           0.49258229542461   -0.40560746256557    1.00074438222909
O           1.07518740578540    3.52153123559081   -1.36000596277680
H           1.01733017048620    3.57601031133585   -2.31459202512842
H           1.35490230914996    2.60474088041558   -1.15530058014978
O           1.05548594718041   -3.42875831526376   -0.01420654078308
H           0.95234612075479   -2.62083020774038   -0.55539724643959
H           1.94031334262361   -3.38913385802188    0.35184632522787
O           1.14030022327308    1.97941718837571    1.98905591750311
H           0.93505131908220    1.04677078225911    1.78606816408213
H           1.89952231550155    2.19245902769036    1.43929170657099
O          -0.81666559541177    2.94519036425928    0.46880892366829
H          -0.20058467268834    2.73440594167458    1.20931562527231
H          -0.26408336529272    3.42353315336285   -0.18112656465125
H          -0.93095023688747    1.62025311756813   -0.18670481533641
O          -0.96861999420457   -2.52667109132650    1.50572987774363
H          -0.29899250458909   -3.15391335923477    1.16402103683717
H          -0.46092474861902   -1.68392775071595    1.56530211149652
H          -1.70022150845099   -2.19568019307998    0.24718860801817
N          -1.94010381941919   -1.81950184553639   -0.75973398863796
H          -2.44487409235186   -0.93669514529111   -0.69837112931814
H          -2.43041188953911   -2.50013145139837   -1.33111165300278
H          -0.96485719827768   -1.57785109804282   -1.15070715194177
