    26
        -50.46516725  Gyration_radius:  2.53931546166 Dipole_moment: 5.789
 S           0.24924862664782    0.33221995355001   -0.45854034935768
O          -1.16292913157301    0.04176077352453   -0.22736201703411
O           0.50196123183981    1.72365416066558   -0.73066337228548
O           1.01729526692886   -0.09526417443116    0.83262227487327
O           0.79452814256606   -0.57309236261162   -1.48312143814440
O           1.89739731691097    3.32639565600546    0.86673058345361
H           1.39711458248172    2.82323083238890    0.19069575800387
H           2.81482383293472    3.30289134830370    0.59227266123048
O          -1.14377592919585   -1.88977546581671   -2.82694227535581
H          -1.70189800997979   -1.26784522420673   -3.29621710623329
H          -0.40437376821254   -1.36431253711956   -2.46162673770061
O          -1.63440351008704    2.29093152783533    1.11588571913827
H          -1.26601177576182    2.93573097902280    0.50546786921072
H          -1.63274158058326    1.44763728112140    0.62389867087986
O          -1.80617604981117   -2.50216927721446   -0.29567409343455
H          -1.77545294506861   -1.53230075897318   -0.12276021074025
H          -1.82119503382673   -2.54294221861086   -1.27380200880697
H          -0.36045196547122   -2.76591549090861   -0.03291491858374
O           0.53966035460595    1.69892919010862    2.52882856568855
H           1.12389179921270    2.40512382372695    2.18744257174943
H          -0.36419007545876    1.96281182276439    2.23614162199064
H           0.83573900999400    0.60655211577103    1.57139495404469
N           0.73583087792789   -2.66571980122514    0.00036645940792
H           0.91155237738772   -1.85448740927468   -0.68763627438650
H           1.22036374704303   -3.51600081596741   -0.26862516443147
H           1.03419261857143   -2.32804392842371    0.91413823681952
