    26
        -50.46516749  Gyration_radius:  2.53916767366 Dipole_moment: 5.797
 S          -0.40158819572893   -0.39150647646250   -0.26312730373304
O          -0.32014433785135   -0.00503436364620    1.14251013936422
O          -1.74038807076570   -0.32547823856642   -0.78955631142835
O           0.52065549319918    0.58801888537070   -1.05691320156129
O           0.24559284948144   -1.69707928128813   -0.47106225831632
O          -2.12033195282733    1.94544135664565    0.94248249445111
H          -1.47414464142908    1.25516342212281    1.18569472267103
H          -2.83785568283517    1.47364153990048    0.51056511963155
O          -2.52101436852566    1.37434773690610   -2.67916115417275
H          -2.33902165895920    0.68552668756065   -2.00612997013818
H          -2.41301720987753    0.94995542933092   -3.53108241874216
O           0.73349935844638   -2.98100286310784    1.85498384578960
H          -0.08941736880969   -3.16255971649339    2.31145490004703
H           0.48208074034765   -2.62490859523114    0.97964141115059
O           1.93180185000282   -0.62528298328454    2.33899480921270
H           1.68010872826669   -1.56150138088053    2.47651068444628
H           2.51994543026208   -0.69903222021804    0.96909608004634
H           1.07773909594033   -0.21175562823703    2.07214107981612
O          -0.75083670302670    2.75393479347300   -1.18942164996477
H          -1.24953975700844    2.70222741250589   -0.34038433120101
H           0.04656862713101    1.50554321909249   -1.12238438630925
H          -1.40744130291162    2.51591487618287   -1.87417631148029
N           2.63599141778902   -0.83355628702072   -0.11790906087030
H           3.44206779778761   -1.39920052718126   -0.36382334486435
H           2.64476805775185    0.06991137099703   -0.58866190332609
H           1.70392180415841   -1.30172815847719   -0.39028167052186
