    26
        -50.46516753  Gyration_radius:  2.53916702376 Dipole_moment: 5.800
 S           0.37550528286786   -0.22573829916535    0.43780001094271
O           0.03132634218583   -1.63162797116674    0.70561263805314
O           0.66849900315410   -0.03834041408517   -0.98021778398511
O          -0.96356307713612    0.52472744569575    0.72732620029661
O           1.40982666718181    0.28507778852383    1.29985705843476
O           0.65710646213528   -3.25182187273764   -1.36323470285092
H           0.51430329874095   -2.74308386013505   -0.54043753497786
H           1.60207133249635   -3.23532054582116   -1.52214720596596
O           1.77683756170312    2.36089965425590   -0.66309748843485
H           1.43277570056969    1.49013398627125   -0.93974760879505
H           2.40402082727208    2.16885328723904    0.03964740776586
O           1.09227837622546    2.33652144574655    2.96130964116696
H           0.81663284131662    1.99594070409680    3.81317594552751
H           1.31315954257480    1.55457959563541    2.41328229376348
O          -0.84776972774037   -1.41552659801187   -2.62133594300885
H          -0.25482811472130   -0.74438570748470   -2.20955324454827
H          -0.34667532942071   -2.24717908062590   -2.49463386869574
H          -1.81584202902982   -1.50503393786657   -1.48845299253229
O          -0.36837276907141    2.96761901088100    0.78758697662316
H           0.37811938466990    2.96929184078093    0.14336976031373
H          -0.77349174941894    1.54180456855368    0.74325225703301
H           0.06401256112406    3.00853325529074    1.66392286361436
N          -2.24519549999613   -1.54635829739808   -0.47508657497796
H          -2.92486457364817   -2.29174144882142   -0.36239450015015
H          -2.62622600104278   -0.63846022827574   -0.21338456197625
H          -1.36964631298198   -1.68936433138981    0.13758095736262
