    26
        -50.46516749  Gyration_radius:  2.53917469648 Dipole_moment: 5.798
 S          -0.15725826766560   -0.58490501722504   -0.13128060148539
O           0.60154555492011   -1.04827225625669   -1.30438072352756
O          -0.89386820020509    0.63360164731675   -0.45466934414052
O          -0.98615940879431   -1.60623619564563    0.45496957084080
O           0.96618595136529   -0.18171521307283    0.87640046008975
O          -0.73427644087778   -2.48222556169704    2.95271987630809
H          -0.89700786508679   -2.26058797722646    2.01193139622262
H          -0.14144627095047   -3.23472986762001    2.95077504137021
O          -0.16725003484763    0.19096597511583   -3.57804978698089
H           0.07603464281612   -0.37332592739789   -2.81737144494094
H          -1.08731283647536   -0.00160608625570   -3.76490800599044
O          -2.43975360971835    0.54173198391178    1.71017299792725
H          -2.75997313807920   -0.36293431261678    1.65495375634838
H          -1.97996597833851    0.69944449023129    0.86344922962059
O           0.37046344653102    2.31557835899114   -2.02336019103989
H          -0.22638255436422    1.89740292136318   -1.35965196006893
H           1.61876876117168    1.62098360046598   -1.59046839045687
H           0.16187181139862    1.81703926151345   -2.83986858077501
O          -0.19453830118201    0.15384928128139    3.08223756421283
H           0.53331409204607   -0.01294690382263    1.80105796372984
H          -1.07186473266070    0.46684894107245    2.75883233743751
H          -0.34415704837071   -0.78004173926154    3.33129391236388
N           2.32402086471793    0.85241920386789   -1.23688169794131
H           3.17504105246924    0.81120110576171   -1.78844394593750
H           1.73694159742533   -0.04844725127021   -1.31513131909718
H           2.51702689275407    0.97690753846919   -0.24432812408296
