    26
        -50.45882053  Gyration_radius:  2.5489312208 Dipole_moment: 5.485
 S          -0.40603429564713    0.93146270383040   -0.31169386261564
O           0.63343753320367    0.08654980573468    0.49968944855422
O          -0.95571455908223    1.94177603857071    0.55418496035129
O           0.37905997690046    1.47472164171890   -1.42201653764304
O          -1.41492564972856   -0.01157246517209   -0.79826235392967
O          -0.73725279038070   -1.69636137087076   -2.62087340370342
H          -1.05994372483877   -1.12414878139106   -1.87094587895869
H          -1.41794980700619   -1.65174166581036   -3.29483539970791
O          -0.35804908913024    2.18211733632019    3.12838177668193
H           0.38034532629348    2.78528070252868    3.21961616507923
H          -0.61977025870501    2.21240561879248    2.18363265869955
O          -2.83318478465173    0.00586577877799    1.44641067338730
H          -2.44739318929604   -0.07488435698766    0.55286383740893
H          -2.91089950857867    0.95260291535849    1.59538887507790
O           1.38762234284055   -0.31067606146653   -2.77256789056825
H           2.01379015986085   -0.77777479085021   -2.05498286799948
H           0.58098327266678   -0.92874449804411   -2.86325523191662
H           0.98021467349930    0.53112944597833   -2.23807070109382
O          -0.52064792160308   -0.46405220144663    2.65929191828876
H          -1.46039224294690   -0.46966129827048    2.35624916561264
H           0.18218941895925   -0.18423422931985    1.39196477327538
H          -0.41500316612690    0.39430425630164    3.11536379417871
N           2.68130227309811   -1.37368294161607   -0.85502066483152
H           3.64601932588557   -1.11721233990380   -0.69217217999502
H           2.59202415112454   -2.37794293657280   -0.76904902950407
H           2.10017253339202   -0.93552629618773   -0.13929201412421
