    26
        -50.45882046  Gyration_radius:  2.54824910188 Dipole_moment: 5.505
 S          -0.73125864717713   -0.06742722086799    0.77281108524184
O          -0.04444404685662   -1.35279211029190    0.91349357464160
O          -2.14987530459763   -0.20961354898181    0.57306578868549
O          -0.38149201243501    0.83468208332687    1.87193829965668
O          -0.11395980615605    0.62729576735526   -0.48798221777390
O          -3.41693864516828    0.48908094393822   -1.65137744001766
H          -3.72067184071758    1.39318886864441   -1.56342633320591
H          -3.06149839149731    0.23427295599893   -0.77349892745178
O          -1.60541554585604   -2.62687532018256   -0.81592569422062
H          -0.98051279093754   -2.31318919619180   -0.13411022960938
H          -2.47232056404923   -2.36445355816212   -0.49328939653801
O           2.43848302733020   -1.33512643667673    1.58678012777102
H           2.52988873422885   -1.97538144732252    2.29481548869699
H           1.50110351950732   -1.42482115262755    1.25899411931442
O          -1.08740231425849   -0.60053232636745   -2.44873968417800
H          -0.47250383600521    0.12878791449364   -1.32213567154448
H          -1.23091451719031   -1.48882684160982   -2.04213657653834
H          -1.97510279617275   -0.19105660420680   -2.46332923830833
O           2.04905179406668    1.13223934336425    2.05377425026861
H           2.34468393168119    0.16008683526024    1.96109348056130
H           2.26874661443550    1.57816328366471    1.11691536462712
H           0.97502684608145    1.05322291051519    2.04689534562197
N           2.36774566434292    2.03129255501051   -0.30663471896315
H           1.48168647100069    1.64702263532401   -0.63691969816545
H           3.11766347374582    1.61141132062337   -0.84064490775865
H           2.37023100267724    3.02934836590837   -0.47042618077988
