    26
        -50.45882054  Gyration_radius:  2.54855572731 Dipole_moment: 5.489
 S           0.00024996177356   -0.77083744523293   -0.73326877017221
O           0.01310529896792   -2.18537251184303   -0.46553583431299
O          -0.64274560764139   -0.03460727225674    0.49031989894369
O           1.34295179092600   -0.20947139406673   -0.89411739244953
O          -0.86076569885188   -0.39467019440878   -1.85642640775972
O           1.55953739655780    2.22311907109004   -1.70329132113467
H           1.56032543448280    1.30106378676873   -1.32398343769507
H           2.20552138284326    2.21454613162736   -2.41195174639080
O           2.46242697602562   -1.79471080370462    0.91859694101053
H           2.20962033450029   -1.17751173335440    0.20513667972085
H           2.12410236733785   -2.64892894141933    0.63511371546613
O          -0.80781924300772   -3.27593848191904    1.80972958111066
H          -1.73533778881073   -3.50041438276478    1.72869055932664
H          -0.51809664869642   -2.98737746762375    0.91819522613326
O          -0.93336005019089    2.04066727390895   -2.16174999325387
H          -0.95379853834879    0.96551535447415   -2.10039850022455
H          -1.35580599261494    2.34781221053441   -1.23849856683367
H           0.06180529460664    2.24960893283609   -2.08053456921493
O           0.48315994139804   -1.01851605216654    2.50584827257425
H          -0.00473162322527   -1.86423205429190    2.55855827896287
H           1.35695232518496   -1.26067424532264    2.11492858912425
H          -0.18218410050513   -0.39618142319748    1.34509872909349
N          -1.79523536682142    2.56005582985615    0.17655780766072
H          -1.30101308921922    3.28906352433737    0.67473660465846
H          -1.50120959476132    1.65710288987710    0.55107083133647
H          -2.78765517189504    2.67088941825027    0.33717483430746
