    26
        -50.45882062  Gyration_radius:  2.54847887707 Dipole_moment: 5.493
 S           0.14642537370722    1.05307404783451    0.04748944624932
O           1.52445974401036    1.38399094383015   -0.32105540946306
O          -0.14510094304610   -0.26323307914600   -0.74940797980189
O           0.05456290131164    0.70553400609943    1.46688509883599
O          -0.81141830136973    2.05280691960571   -0.34723210498972
O           1.87511422111294   -0.81104205402891    2.46958498504833
H           2.16166626901517   -0.38708928424478    3.28058398367631
H           1.09858803468685   -0.27721313089951    2.14399537688411
O          -2.58548907753157    0.96532081152086    1.58651051988627
H          -1.62142596138347    0.87083958000139    1.71121017511638
H          -2.69535808128673    1.82228212347896    1.16452579831165
O          -2.79910812519085    1.61712349190147   -2.04995920385015
H          -2.50173754319392    1.83367739200783   -2.93422647858644
H          -2.08187395221051    1.90091693281724   -1.44410001744779
O           3.07461817311747   -0.42869000984936    0.26202569351871
H           2.46576867300546    0.41335900843617   -0.02175364275149
H           2.74496421210664   -0.63388154816825    1.20536539727285
H           2.69897213699889   -1.21767967370964   -0.33920477468204
O          -2.62240719370376   -0.61005010533986   -0.54810617652707
H          -2.92445957029645    0.04348824269591   -1.20970077211744
H          -1.15973983398041   -0.45607975526241   -0.66680845692257
H          -2.78765755450734   -0.17537659589854    0.32293472075594
N           1.90721630915565   -2.21359432724004   -1.12793516356990
H           2.22189453985236   -2.40779139853839   -2.06933515850589
H           1.03239165012686   -1.68979253664588   -1.17606128437454
H           1.72913389950051   -3.09090001124351   -0.65622455196079
