    26
        -50.46276869  Gyration_radius:  2.52139084987 Dipole_moment: 7.617
 S          -0.72438746886882   -0.26802126805386    0.24555593073430
O          -1.66222144629994   -0.80710064344542   -0.74736747470444
O          -1.58950557233048    0.22484816997628    1.41278884492079
O           0.19761251073999   -1.28363909545407    0.72668211762728
O          -0.01899295926656    0.88438922169445   -0.32458679910982
O           1.07553857917725   -1.55486248014331    3.23009885600066
H           0.58291242027226   -2.29785482035027    3.58236282163384
H           0.87511794508983   -1.52633073405211    2.27255585688462
O           0.70504065607491   -2.11236467131897   -1.73479192878067
H          -0.14477252932529   -2.51475899149952   -1.92582901392089
H           0.65925436208496   -1.88127805446518   -0.78490021660573
O           1.46732644984571    2.18453037122366    1.43483979422142
H           0.98242316767283    1.68957439834936    0.73925706181999
H           1.30732229041812    3.11435611356330    1.26626854415949
O           1.10880872869249    0.35704054679198   -2.66277671446035
H           1.19188086106297   -0.61031722827892   -2.51770291076084
H          -0.35891369453554    0.52518289351825   -2.96070740593612
H           0.99840959101908    0.70681106473654   -1.75501365009340
O          -0.01077626083591    0.89463654642022    3.26202789265993
H           0.45181948107016    0.04939347257718    3.45060686289530
H           0.63714835113097    1.43899968686919    2.76601796821019
H          -0.98447023949388    0.51331363979301    2.19948581815033
N          -1.44775075220270    0.57453063786390   -2.86378228281181
H          -1.63031592194282   -0.01785024150420   -1.95153073740146
H          -1.93288455855875    0.18402825645042   -3.66458308393719
H          -1.73562400069021    1.53274319873886   -2.69497616139181
