    26
        -50.46276871  Gyration_radius:  2.52139736954 Dipole_moment: 7.617
 S          -0.16056164590605    0.79445451800180   -0.01649690698631
O          -1.26165645818181    1.57049183818747    0.71773179020041
O           0.11553189522436    1.55510241382386   -1.24173386359030
O           1.01167616254910    0.70015257244814    0.83790695412386
O          -0.68612676182850   -0.52796654995215   -0.37097549004392
O          -1.55224460085564   -1.91014890590454    1.71097754605628
H          -1.17935442157899   -1.45694177549586    0.92388981844722
H          -2.38005454866733   -2.30291295580160    1.42977020791102
O           2.55315925390589    0.02561431962112   -1.20458016658263
H           2.10264265918397    0.20953707614720   -0.35544755088925
H           2.55667601028818    0.86865486688988   -1.66273430097053
O           1.03263826443264    0.82298465634883    3.50173224504773
H           1.15062657315670    0.70451283732771    2.53740431138591
H           1.35855442676264    1.70165686300046    3.70306754782519
O           0.85027115276773   -1.82645721053576   -2.09455318374956
H           0.10978943498361   -0.80378849247790   -2.91737395072878
H           1.68063486895163   -1.35777027836122   -1.86096146125855
H           0.27901719962594   -1.66262507419111   -1.31648722745239
O          -1.56709409891159    0.46095608824262    2.96189957276855
H          -0.67872643539802    0.57028690093678    3.36544248627572
H          -1.42490308588112    1.15072285685629    1.64797009676206
H          -1.61702488661017   -0.48253311838276    2.69824681448530
N          -0.45262102643975    0.08227605516309   -3.22721669335740
H          -0.25155049762701    0.78869439127295   -2.40441461331897
H          -1.44518397246859   -0.12775683833928   -3.24327834703245
H          -0.14411546146907    0.45280291518464   -4.11978563532856
