    26
        -50.46814361  Gyration_radius:  2.48679761248 Dipole_moment: 4.356
 S           1.17356707011596   -0.62381381613661    0.40422061426369
O           1.23342512305288   -1.30816254110197    1.77730198169404
O           0.18527949316902   -1.32254386559167   -0.42773965931578
O           0.71039974685249    0.76559415418531    0.62559904229735
O           2.48854293111302   -0.65633557827468   -0.18319338605043
O          -2.24802840405564   -1.45104557983738    0.51280733839087
H          -1.31674931857564   -1.44226642928133    0.18123107361259
H          -2.51152497923225   -2.37260737046073    0.53631296318475
O          -1.54119422802773   -0.29497643882450   -2.17905199622531
H          -2.32164520123789   -0.32409330007278   -1.61628238286431
H          -0.87626002997364   -0.83258854926533   -1.69876384131844
O          -0.46322120370863    1.78782077436602    2.77901225027872
H          -0.01655230067292    1.51040157954816    1.95227580888036
H           0.23361979983709    2.04412532456709    3.38535349965255
O           2.38815079183161    0.25083377295829   -2.61222078523996
H           2.56311942888778   -0.08716846997762   -1.69529763960988
H           2.23873950572431   -0.53116909834854   -3.14730209120433
H           1.11888213263403    1.18220914093346   -2.26828633615449
O          -1.03135524228589   -0.84294809330023    2.85599515017263
H           0.34084375195169   -1.16367043241850    2.24282212067521
H          -0.99541786778158    0.12780419843004    2.98421912260526
H          -1.66240981789324   -0.99429784941807    2.12498965377187
N           0.27401426407806    1.58933057018446   -1.77740504454332
H           0.17151495824990    2.58316601332009   -1.94986172005182
H           0.43533204481735    1.37276780647062   -0.74016917318305
H          -0.57107243886959    1.03363409734139   -2.06656655371472
