    26
        -50.46276874  Gyration_radius:  2.52142967695 Dipole_moment: 7.618
 S          -0.58005773634943   -0.04026650959910   -0.56526141130641
O           0.36886818518474    0.91260572467256   -1.11719965356242
O          -0.07564607712277   -0.66530575961256    0.66171241093286
O          -1.88425513705622    0.57907727206834   -0.29787934659806
O          -0.84604187831370   -1.14525922641142   -1.59579292057937
O          -0.24778677120293    2.71969492353674    0.71488390151848
H          -1.13140223358682    2.93481500112161    0.40901713121724
H           0.11882169846052    2.13906766467528    0.01751711489349
O           2.17164805567334    0.41783991323126   -3.01893849333062
H           1.80700910692866    0.81690250395063   -3.81055757343865
H           1.59882923405086    0.70829287396139   -2.28044291707671
O           2.10355465019535   -2.11635046962551    0.28701218183408
H           1.33692349233487   -1.53343903613461    0.47801220277606
H           1.96574180798901   -2.91860759342427    0.79296436177013
O           1.40209197739069   -2.04615940671556   -2.29956059048331
H           1.83272452629049   -2.17502077543110   -1.42769943166625
H           0.05009486192590   -1.54857285163241   -1.91570302270478
H           1.82910565206392   -1.24991866758530   -2.68383832941586
O          -0.05420550165775    0.98511001412103    2.73378362997673
H          -1.49529101987520    0.57570759104365    2.56933610556841
H           0.24721076545487    0.29892450500104    2.10385896002398
H          -0.00056021393658    1.80969266092059    2.20377497138805
N          -2.44049290783171    0.21745210216288    2.15032817803740
H          -2.28218974420802    0.34756358092368    1.06650684706728
H          -3.24194347273939    0.74749442796045    2.47574301486247
H          -2.55275131006341   -0.77134046317710    2.34842269829408
