    26
        -50.46276870  Gyration_radius:  2.5213810252 Dipole_moment: 7.616
 S          -0.13209234855863   -0.43616004571263    0.67035641065815
O          -0.70723199356595    0.58572725243344   -0.21034806932881
O          -0.27010178696925    0.04379915900063    2.12100767790669
O          -0.92965313184720   -1.66558300180024    0.57851470373678
O           1.27074301351185   -0.67780600456279    0.37588427001831
O           3.35330703012272    0.45278297770409    1.59895073225665
H           3.69394617305156   -0.22821055005945    2.18117961149217
H           2.67997329167487    0.01761606590497    1.03756732271591
O           0.66488815193634   -2.08786634582099   -1.77999046292044
H           0.29114253255105   -2.85693535763551   -1.34475492308504
H           1.03848466467212   -1.55110608614999   -1.05190776394219
O           0.40226365766539    2.96941945662967    0.07683967895907
H          -0.32660617027573    3.59179410547334    0.07699293982061
H           0.01289238785481    2.08701652295302   -0.10667908740709
O          -1.05389768207700   -0.26312642152338   -2.69550889725829
H          -0.36165090580661   -0.95835427380402   -2.66118838369335
H          -2.18256598694547   -0.87646881181554   -1.90740643024259
H          -0.81101418890826    0.32590651289421   -1.95211967604966
O           1.30988505380593    1.98951882115442    2.40138692887349
H           0.36076427277669    0.84565198212355    2.28582165957468
H           2.17898816012332    1.57464314358535    2.21028265093289
H           1.09583331001169    2.52018002707671    1.60467870978930
N          -2.79709010572265   -1.26949296640763   -1.09174932053218
H          -2.04696898135254   -1.47667714299807   -0.31015580991587
H          -3.30646979443664   -2.10775090520771   -1.35053113032615
H          -3.42776863328290   -0.54851814343762   -0.75712334203796
