    26
        -50.46276877  Gyration_radius:  2.52137877239 Dipole_moment: 7.616
 S           0.11099005459542    0.52825047188103   -0.60544549827405
O          -0.79166052115351    0.81428874277541   -1.81256890610644
O           1.01787560883426   -0.56001756029287   -0.93117710725031
O           0.83179637668889    1.77965586494070   -0.33991379170395
O          -0.74244475356717    0.20345777764268    0.54205926150035
O           0.60217638669522   -2.46468517189120   -2.75062249434735
H           1.15452263641818   -2.21752281510949   -3.49395176356051
H           0.84532313498971   -1.86113456716813   -2.01953245396769
O          -2.36519975573318   -1.83879741874905    0.10509194068540
H          -1.73192342352389   -1.12252541195626    0.32838626266434
H          -3.21157044913952   -1.57458715429587    0.46907298313620
O           2.59481453210998    0.02738208531439    1.11122129190390
H           2.08472025177661   -0.33797163204100    0.36016446181443
H           2.95361521462795    0.85312735390422    0.77953489001186
O          -1.83452043834454   -1.38214136927830   -2.48283239547903
H          -1.24505450511601   -0.06010527060401   -2.12540463086819
H          -1.04546366123766   -1.92199792549725   -2.70627908168741
H          -2.13924756019864   -1.71742575532849   -1.61282274538234
O           0.57073147836994    0.19608543822652    2.84241503787539
H           0.36101767583464    1.65149299607186    2.51219060305632
H          -0.04531466411892   -0.08703926579759    2.13604612009079
H           1.45261994670270    0.00974294423374    2.45351273588407
N           0.18110365230915    2.58756077076513    1.97480103756685
H           0.45005577345903    2.32023435997885    0.93906512093577
H           0.74722512300888    3.35532397534544    2.32001004370930
H          -0.80618810428735    2.81934852693180    2.00697907779561
