    26
        -50.46061518  Gyration_radius:  2.54395061971 Dipole_moment: 5.964
 S          -0.14883092844154    0.43661159712500    0.19391939279903
O           0.29920978600252   -0.51414183795243    1.33433710616228
O           1.01231133573850    1.27503792078298   -0.07762863686853
O          -0.42810338666411   -0.42146270890950   -0.97991336368302
O          -1.32012669567560    1.16687325391266    0.60536200143702
O          -2.92395286206913   -1.02281926358992   -0.22106101649869
H          -3.23968302383545   -0.14167927217177   -0.00017582455540
H          -2.06387336459319   -0.87819804051651   -0.65497192817809
O           2.81556298348478   -0.60034191005731    0.19971013631707
H           2.48914884786542   -1.13785404210757    0.92714972467986
H           2.25841690902658    0.21321885342310    0.22499778117614
O          -2.48700610198201    0.82498548012671    2.97213605126077
H          -2.11860129753829    1.06856179596110    2.09742527229717
H          -2.01420714134534    1.35164032741332    3.61769499506948
O           1.71402261353358   -1.03254870932761   -2.05708956826930
H           1.91359023408277   -0.03819347329645   -2.47062717051588
H           2.28962211967407   -1.04748087491103   -1.21655646218813
H           0.75070393599996   -0.88366881186846   -1.66275638379100
O          -1.80790903914504   -1.63729662588717    2.11929755243408
H          -2.18122094280724   -0.90686076638052    2.65265336455512
H          -2.33593823476774   -1.63421779849113    1.28733950602653
H          -0.53290847649208   -1.02333150503888    1.67644070467421
N           2.02243748979904    1.38671001569139   -2.66717707751457
H           1.43308800056873    1.77930160639946   -3.38923676149737
H           2.95681286850147    1.76276946760453   -2.76151682189774
H           1.64743436107661    1.65438530206190   -1.74975255343275
