    26
        -50.46061521  Gyration_radius:  2.54396561634 Dipole_moment: 5.969
 S           0.42737167239629   -0.17280048007668   -0.19424608625383
O           1.25447258796596    1.02711264160830   -0.16342935408109
O           1.15767664456935   -1.38563230692199   -0.45938769011499
O          -0.35267468741370   -0.27153407416890    1.06023461618331
O          -0.59946572691695    0.07553096902633   -1.32970473302454
O           0.70169850277736   -2.91830631226653   -2.58617796743970
H           0.98842234758021   -2.41231903334427   -1.79751580372739
H           1.17879540772538   -2.54756584267102   -3.32964954482768
O          -0.94299039793457   -2.86362421163081    0.74496882973956
H          -0.79187235935340   -1.94358104699466    1.02719977716398
H          -0.06975786582294   -3.19954574837527    0.52235494506925
O          -0.67388835980337    2.73956635642570   -0.60555977834507
H           0.14883808205663    2.19555988271747   -0.59303788926342
H          -1.24671765680298    2.29471556014458   -1.23694418245968
O          -1.72040481705165   -2.14358163224215   -1.69999698698500
H          -1.01480211209468   -2.58789777926779   -2.21192254926656
H          -1.65611043238171   -2.53205882991588   -0.79670643255715
H          -1.10944282370890   -0.80676537520322   -1.50348248056766
O          -0.94556887032631    2.00752598921703    1.82014346218484
H           0.06728460134185    2.28292907222998    2.13354190950469
H          -1.02369852547203    2.44125354915296    0.90164124133170
H          -0.79935303979204    0.99561989381635    1.57517191481077
N           1.49834745606425    2.43956022571957    2.22053759932905
H           1.71894831071941    1.92602730441437    1.35937634810637
H           1.94641531557824    1.97818741435172    3.00107679872260
H           1.85847675609636    3.38162378425619    2.14151404676788
