    26
        -50.46061524  Gyration_radius:  2.54403054665 Dipole_moment: 5.968
 S          -0.30246625775463   -0.20015820265675   -0.34407921191624
O           0.34667029495925   -0.57867082503649    0.93161745221687
O           0.62120375501990    0.85299712613478   -1.00967851231257
O          -0.45079641690685   -1.33484946416335   -1.21874605038620
O          -1.54658595552676    0.50795114576078   -0.06896123480030
O           0.75740074561170   -1.51318426965016   -3.58286887800575
H           0.23161698167792   -1.03337876185306   -4.22406149772948
H           0.22769708690339   -1.53832192698971   -2.75883477805883
O           1.96631476665119   -2.39650508016566   -0.18160945400561
H           1.43130954548188   -1.80720064847703    0.38000911402859
H           1.32648489083350   -2.86908856242609   -0.72217304180645
O          -0.45540373013642    2.77163621176316    0.65966975065748
H           0.29770516357108    2.87251827189087    0.07031856075380
H          -0.98311371842355    2.03914816856242    0.26219210649825
O           2.57432113161585   -0.45393552675644   -1.90124916961359
H           2.60221213465157   -1.19924246850399   -1.25723210171310
H           2.15420855454692   -0.83183508716568   -2.70005932358507
H           1.45823894302615    0.36642376802987   -1.37225805915733
O          -0.10382948979025    1.17698768936344    2.61601712415262
H          -0.13606004959276    1.97149564455964    1.97918028126830
H          -1.16242327451027    0.92892664574095    2.74879167499414
H           0.19525595363442    0.39535351955141    1.97953350254261
N          -2.53505774929990    0.54311487018641    2.53105043470451
H          -2.81738501063142   -0.33643971228321    2.94277086782871
H          -2.45730316340286    0.42458274352842    1.51425785176594
H          -3.24021512220487    1.24167474105811    2.72640258167999
