    26
        -50.46061519  Gyration_radius:  2.54380590946 Dipole_moment: 5.965
 S          -0.45424643629259   -0.15468328777256   -0.14362848820982
O          -0.20286811736324   -0.51344606349099   -1.53394628805999
O          -1.85019525039941   -0.08646045925824    0.20458200610951
O           0.23652496943814   -1.26523270528704    0.68982581281072
O           0.24845258016211    1.10797427653911    0.17896966167016
O          -2.96367964514933   -1.64815712450536    2.04894080048703
H          -3.17555643949018   -2.48855726525287    1.64081000460897
H          -2.67645018346118   -1.05614644712570    1.32282718912308
O           2.25300781458881   -1.34993856475323   -1.19513740588388
H           1.30253700374491   -1.21557672458207   -1.42203704728470
H           2.23621182302540   -1.79735486183422   -0.34416459405941
O          -1.17901682302692    1.59201326958315    2.39116645417607
H          -0.60114516835100    1.58552376981600    1.60694493700395
H          -2.06359736296563    1.43841047935303    2.04648478510585
O           2.37173666998238    1.19350845834921   -1.08872658056350
H           1.90603473316588    1.36714607173887   -2.06508051194412
H           1.52766813813763    1.24891676232263   -0.46426243331467
H           2.56186296404256    0.19284106000646   -1.10394209196472
O          -0.57056046570322   -0.91840761739740    3.04471630124572
H          -0.72312691475100    0.05514969250716    3.04244714380935
H          -1.46344073867496   -1.30947707354364    2.95973556485164
H          -0.04402631691542   -1.14976233760871    1.67821342723605
N           1.02437345450068    1.34021075537295   -3.20582997825110
H           0.36221645001555    0.65781812645492   -2.81865127450733
H           1.40669145431697    0.97311226129446   -4.06749948910668
H           0.53059179742180    2.20057553907232   -3.40275791509217
