    26
        -50.46061525  Gyration_radius:  2.54388375207 Dipole_moment: 5.965
 S          -0.09591828715470    0.32574100787055    0.36750889190581
O           0.04245272630068    0.52155370415567    1.78774442222858
O          -0.28395335705072    1.55737792496337   -0.38920508455276
O           1.04772811214606   -0.43094464089959   -0.19065050417423
O          -1.36312134204240   -0.52087542358091    0.07986419114257
O          -1.36118228685075    0.45598513143985   -2.50386937143514
H          -1.91617799487423   -0.24486063192244   -2.14971617869226
H          -1.11818674893005    0.99928972142388   -1.71719956020355
O           1.34887614076063   -1.99069824618838    1.96417902940960
H           1.39902512816839   -1.49066147759196    1.12969966823806
H           1.31884465483971   -1.31943250995150    2.65220021870878
O          -1.65326634435793   -0.49836295311945    3.56641133632999
H          -0.99512740358400   -0.03628345122150    3.00641512520331
H          -2.41076652451059    0.08511018722829    3.62567274903188
O          -1.26960450080748   -2.42192693165309    1.72151835652012
H          -1.56842665423205   -1.94708081185136    2.52316793076918
H          -1.35860303023258   -1.33587475983000    0.71590928083245
H          -0.29534370554795   -2.51565789291660    1.83523613447926
O           1.12569303038813   -0.08350160404543   -2.63927930923878
H           0.12379150684384    0.01589407632728   -2.79463210388734
H           1.46803183286058    0.95585718480927   -2.58820937624097
H           1.16684404682130   -0.34595027394362   -1.62203423154297
N           1.66983552971363    2.33300049850488   -2.21069594943480
H           0.99893224956368    2.33480812176854   -1.43356624645404
H           1.39249349091941    3.03480767036967   -2.88446350624910
H           2.58712973084163    2.56268639985652   -1.85200590268652
