    26
        -50.46061525  Gyration_radius:  2.54392849561 Dipole_moment: 5.967
 S           0.13511303683632    0.44076974612925    0.19369096563599
O          -1.10206050982674   -0.10488313754689    0.95321356451486
O          -0.40607750832892    1.36133843651806   -0.79857677059018
O           1.04632593948079    1.05006477788591    1.12805633827611
O           0.75179450111398   -0.71952926535254   -0.48848647101700
O           2.15393800739122   -1.50847132891832    1.65137317104105
H           2.53121495495494   -0.66382876836487    1.91428203104926
H           1.74629510585119   -1.34003636769200    0.78280062069797
O          -2.50987307194881   -0.06373877223752   -1.42256306590035
H          -2.79356900390186   -0.44607747642255   -0.58709897869511
H          -1.85451193278780    0.62782942844343   -1.16703208292997
O           0.59692845613044    1.13306564824838    3.74929632107347
H           0.84554815224639    1.20361312621775    2.80405679134619
H           0.01974626610625    1.87597189354418    3.92992265550230
O          -0.53586028670966   -1.22496428158938   -2.54011405807758
H          -0.19324155076263   -0.34795500686673   -3.10007868493136
H           0.05678348113326   -1.14072629926668   -1.67577600416268
H          -1.45133371849072   -0.93357464152911   -2.20145732977781
O          -0.16810174292463   -1.32044129844344    2.94513349464764
H           0.04377790711286   -0.54972933534825    3.50948207694091
H          -0.76889910371812   -0.63926923782451    1.77311321472802
H           0.70148420449312   -1.61418118132286    2.58670438419987
N           0.22408689057962    0.97894270698801   -3.48066576730743
H           1.19181399940355    1.07481535317300   -3.75851171768881
H           0.10011463880413    1.40447096319691   -2.55460342056094
H          -0.36143711223113    1.46652430838055   -4.14616128802705
