    26
        -50.46061521  Gyration_radius:  2.54386660018 Dipole_moment: 5.970
 S          -0.18401827235452   -0.46199644137256   -0.04531303248068
O           1.09980633850633    0.25299169083868   -0.22564270941812
O           0.02382929475084   -1.82569959318779    0.36909761397730
O          -0.96064811597075    0.30446693188065    1.05677521225243
O          -0.99600785804872   -0.32115982540042   -1.24771287417777
O          -0.81066799097456   -2.77119902005381    2.71208330267611
H          -1.73681227431047   -3.00123832573282    2.62801769337419
H          -0.50089932094750   -2.54994269837259    1.80915213811848
O           2.32688550753023   -0.99581489572972    1.79989096124236
H           2.04671490884941   -0.48209577908104    1.02112114844715
H           2.08183264105718   -1.90343510333622    1.59709734800744
O          -1.71315965741905    2.16235475903824   -0.84304051898526
H          -1.64634028443559    1.19520274773080   -1.02528526279452
H          -1.84548967521214    2.21919792611996    0.10768208094014
O           0.71317133948621    2.26340410583428   -1.61520640810966
H           0.99184343698252    1.47295579951588   -0.98029239009033
H           0.55511112257038    1.71788647445785   -2.55153576820033
H          -0.23697478853538    2.46181573690928   -1.30584625563639
O           0.17262638602652   -0.31500935644471    3.21295419176467
H          -0.51441847491084    0.10275654344524    1.96733678486473
H          -0.20844666041533   -1.20800138637068    3.33478939181727
H           1.09108203661563   -0.47638345292177    2.89459548906963
N           0.16042151858979    0.74580209979803   -3.54181701343700
H          -0.33872807442171    0.12442302719461   -2.89476428255037
H           0.91251816350920    0.22894345977634   -3.97778044982536
H          -0.48323124652076    1.05977458546762   -4.25635640084143
