    26
        -50.45757824  Gyration_radius:  2.55676012267 Dipole_moment: 3.358
 S          -0.15593562165664   -0.25374902026289   -0.51073175268619
O           1.02120540766658   -0.91393238372123   -1.01417690176244
O          -1.29853392406085   -0.29129431353878   -1.39110615372020
O          -0.56543492689998   -0.85037634046042    0.81978153327032
O           0.22710013579665    1.20096503204934   -0.22583716710042
O          -3.14125734988622    0.16427581971944    0.53694889532455
H          -2.68350150283244   -0.15090633202711   -0.26113793433947
H          -2.74251747578393   -0.32237183553763    1.26331306199327
O          -2.08863807806210    2.03365160745053   -2.54363758660141
H          -1.48365181865932    2.25448656260052   -3.25291520948048
H          -1.88624404363714    1.11769319726712   -2.27977098074220
O           1.90016210633977   -3.15385544677964    0.18125237847422
H           1.32267505731571   -3.87616922849779   -0.07039896158272
H           1.66898224454908   -2.40003270248552   -0.39624453004849
O           1.42769384140785   -1.40683233639796    2.12069497400462
H           1.70339561083734   -2.21442418870005    1.62828588935859
H           2.05541015794499   -0.68454065894117    1.79335983594760
H           0.32520400698792   -1.09611153514136    1.47456792732970
O          -1.89131189854842    2.47232922517030    0.10381950562323
H          -2.11028869568727    2.61260997701553   -0.83932949843045
H          -2.50874826270111    1.76350762863646    0.40220352055785
H          -0.63765229407552    1.77576878109525   -0.03897474013140
N           2.81423716253039    0.39440743193738    0.83232664704237
H           2.39889037350820    0.08260310891184   -0.04288188450509
H           3.82109511479479    0.39496128823695    0.72881123906622
H           2.50766466280832    1.34733665239851    0.98177786313254
