    26
        -50.45757822  Gyration_radius:  2.55674391145 Dipole_moment: 3.359
 S           0.49869468084045   -0.30639910831003    0.08233112995671
O          -0.32870316274776    0.49244398844910    1.09301428076324
O          -0.42989774078947   -0.61327147803211   -1.07414040097579
O           1.57660219792095    0.54401405005109   -0.35341487093843
O           0.91036916214073   -1.55703452168003    0.67262040937399
O          -1.43791758619944   -2.83660902431005    0.26212796395778
H          -0.49348691725616   -2.62921837151228    0.36641763073755
H          -1.68584804413288   -2.45735098283205   -0.58526539807313
O           1.92999849309930    0.99817441862970   -2.97771950950506
H           1.97446986310924    0.87505167028062   -2.00916291447019
H           2.31833625500765    0.21443303295997   -3.36952232731174
O           0.50670677688631   -1.89800816024365    3.33308600131315
H           0.79105872120625   -1.90093940182072    2.40102919279754
H           1.16126801852114   -1.39351987512168    3.81769706290415
O          -0.65319651986801    1.36159785860093   -2.49691310531069
H          -0.54956710602086    2.08870572532617   -1.80161233806498
H           0.22428075156201    1.32062320785045   -2.94310464392251
H          -0.59178524302451    0.28334142475561   -1.74688665720363
O          -1.83277391676507   -1.11965551470953    2.25560874847538
H          -1.18589602404818   -1.45948671035799    2.90619076598989
H          -1.01287311276678   -0.14151479086705    1.58613193351643
H          -1.91632233912092   -1.83844284400008    1.58556924968928
N          -0.05758992198681    2.92056516544444   -0.48653071664404
H          -0.73135701001928    2.90882813111714    0.26864915299053
H           0.32090811457307    3.85619399882074   -0.56284083205938
H           0.69452159987582    2.28747810151025   -0.22335980798463
