    26
        -50.45757822  Gyration_radius:  2.55673356211 Dipole_moment: 3.359
 S          -0.06388665770998   -0.46680635040638    0.35689570994014
O           0.72650903174819   -1.21612077273711    1.30336938808091
O          -1.45369510258494   -0.84038498644899    0.29506712100971
O          -0.01016636200097    1.02291336098656    0.70631951866482
O           0.57887167450175   -0.60343216270608   -1.00766420191284
O          -2.41284589832949   -2.01934809764522   -1.92033964651347
H          -2.20220094386331   -1.66874591884330   -1.03266809781115
H          -2.11187628997803   -2.92921819825428   -1.93175393642015
O           3.11227628972549   -0.69012107719627    0.14087632836263
H           2.85011849163839   -0.69784179430997   -0.78357129430963
H           2.37929584667358   -1.11759325702431    0.61612770578551
O           1.63569903650207    0.08109741705716    3.50527636675263
H           1.32190084333533   -0.53931129922040    2.82248529675122
H           0.91250448787980    0.19780270981350    4.12271140956020
O           2.33810387850518    1.54456971438345    1.35934229602068
H           0.97645380801336    1.30403136648835    0.95263758568950
H           2.29191884366157    1.22926701472348    2.28435855303838
H           2.84197236824148    0.84503934844206    0.88040827056814
O          -1.00840803123086    0.07734998495831   -2.73717323294287
H          -1.59086372918489   -0.71719081704984   -2.72227917523177
H          -1.52747119896908    0.78090858433181   -2.22873009701881
H          -0.10810207338737   -0.26824481498263   -1.84355133326432
N          -2.27701735088892    1.59096504971384   -1.02662492626019
H          -2.22150857689036    0.84779812304772   -0.33355697309680
H          -3.24229647393536    1.88448342149239   -1.10759087841769
H          -1.73528591146573    2.36813344137807   -0.67037176703567
