    26
        -50.45757812  Gyration_radius:  2.55684796468 Dipole_moment: 3.350
 S           0.45461100701584   -0.29047496938880    0.24115768458179
O          -0.54242870769611   -0.99572182928244   -0.65483453750934
O          -0.22464993387779    1.00279193405370    0.69958211052988
O           0.70966890499384   -1.13566673074007    1.38246328616163
O           1.62444669619238    0.08539307632579   -0.51053106753782
O          -1.80271798874452   -2.12480096070049    1.55472435836973
H          -2.02295383000392   -2.17920620266638    0.62096937150563
H          -0.83608924416971   -2.02128402160183    1.58197508543719
O           1.95530609929129   -0.85334768676129   -3.00609746580395
H           2.22032843933098   -1.77264622954099   -2.94939845933985
H           2.01245630381363   -0.49188940781043   -2.09982892858682
O           0.34569072349673   -0.07661239188701    3.85298224729789
H           0.59808083837522   -0.57233032480441    3.05288553795158
H           1.07810395415998    0.50649209880853    4.05664355448029
O          -0.53809080394737    0.04182741887537   -2.86812900656338
H           0.31137348613364   -0.32914570396110   -3.20194283540486
H          -0.60121363963602   -0.52988756586686   -1.68480939525237
H          -0.31499629788527    0.99444313643827   -2.61263457189177
O          -1.89762033717687    0.38232098336134    2.43985848130646
H          -2.09926822051762   -0.55349344872433    2.20292211078923
H          -1.28331109168702    0.32037407040673    3.19880883655658
H          -0.97330485221897    0.78869554601893    1.41169375743478
N           0.32638526240860    2.28864363420598   -1.85164333640581
H          -0.31909227976293    2.73756383594084   -1.21428249611622
H           0.82644935774313    3.00749986602480   -2.35925115889623
H           0.99283617434895    1.77046187325453   -1.28328317308280
