    26
        -50.45757819  Gyration_radius:  2.55678189486 Dipole_moment: 3.353
 S          -0.02177308875355   -0.53106322945842   -0.25871067779895
O           0.32850112950573   -1.12858925562328   -1.52453168841231
O          -0.73735138235128   -1.39561104572558    0.64426320756525
O           1.24915642263972   -0.02613944747071    0.39240090175998
O          -0.89807484064952    0.70170480188298   -0.49607441501892
O          -0.93677677458117   -0.22425803880008   -3.74691405415177
H          -1.82762600201244   -0.57624016444184   -3.76664049912399
H          -0.46118155669586   -0.70863854232427   -3.04780207741614
O           0.44445556346286   -2.21293674461979    2.91455724801574
H          -0.08683602454669   -2.06123827965226    2.10838987875603
H           1.08750255842214   -2.88828249643296    2.69325021548866
O           2.33236702864310    0.59762749353539   -2.09421523231011
H           2.68633002268796    0.73619733286896   -1.21166267827427
H           1.77718362995784   -0.19770885991497   -2.02299399246395
O           0.84410985215895    0.40533751433783    2.76411075207065
H           0.82661775547206   -0.52708579082085    3.08174602997230
H           1.10420977190384    0.21954532190590    1.48787830194817
H          -0.12898767460964    0.67801444880810    2.72684914395009
O           0.05121953638399    1.91823027076574   -2.45334029275041
H           0.99568511751644    1.63519078670324   -2.42922649999535
H          -0.35419904754927    1.37353228259551   -3.15773158863002
H          -0.51290829486053    1.27483416044913   -1.29398928240516
N          -1.70207527062575    0.76468088572375    2.29939893067659
H          -1.70247384974281   -0.05187302421665    1.69198422967171
H          -1.91428287624352    1.56544923138328    1.71790406921376
H          -2.44279170551678    0.65932038852128    2.98110006966987
