    26
        -50.46379207  Gyration_radius:  2.52742653335 Dipole_moment: 3.677
 S          -0.73462475596874   -0.13627438886645   -0.12249009796047
O          -1.57121938800656   -0.77505947088741    0.86109945269590
O           0.58146181060019   -0.83199871194386   -0.23927793466079
O          -1.32479523004243    0.02921224430154   -1.42665815442754
O          -0.37029461859442    1.30380691237315    0.36364551053065
O           0.74059338667924   -1.47781497095498    2.35599029912691
H          -0.12961297173073   -1.84922344793960    2.52748573357261
H           0.77827564234342   -1.36669573624725    1.38863845513994
O           0.71182185716376   -1.95407232162557   -2.70918706588273
H          -0.07048145978294   -2.49153368223639   -2.84413174205361
H           0.68052254229068   -1.67061622498755   -1.77584529058903
O          -2.37349553537682    0.39585276906315    3.11010506506532
H          -2.18237452018142   -0.11711831422608    2.29708379047058
H          -3.15170538291246    0.92001118008131    2.91682863149817
O           0.25060349448886    0.58800902464375   -3.44160717031288
H           1.18347161886548    1.04620426619739   -2.37886977668241
H           0.52239104130625   -0.34811460408803   -3.53978539705712
H          -0.53392739022527    0.51598524108164   -2.84862533453020
O           0.20189340332757    1.09175780162579    2.80615404929026
H          -0.13160664495151    1.26441863821154    1.36829662820785
H          -0.69976975849814    0.99785757408402    3.17567174754588
H           0.56843975628855    0.17679597297838    2.81566413553578
N           1.69072497008136    1.17413962406166   -1.40651516851231
H           1.41060903414553    0.28638326971086   -0.87421411484393
H           1.25648630739781    1.94302715587197   -0.89434373651579
H           2.69661280126445    1.28506019970061   -1.48511251464291
