    26
        -50.45757824  Gyration_radius:  2.55673455386 Dipole_moment: 3.359
 S           0.50561429907155   -0.26649800470346    0.15122769118514
O           0.96822921158547   -1.23114094001273    1.11946707798682
O          -0.50260445275241   -0.94861912711539   -0.74992215938921
O          -0.25148283245766    0.85683955583296    0.86464095889074
O           1.54275351816620    0.35070886763228   -0.63512447264201
O          -1.39462512301389   -2.52662482648468    1.36169434962986
H          -0.44657334179712   -2.31422612536248    1.31768471457701
H          -1.70641874072197   -2.47081999210564    0.45445253480629
O           1.70080344554576   -0.16977284285887   -3.26625021090345
H           1.81654093003461    0.06056495833440   -2.32350911132387
H           2.06604434572221   -1.04878645829598   -3.37809368187059
O           0.76195430218205   -0.58931587903677    3.74688032209520
H           0.97762766700733   -0.93121002588920    2.86022895342052
H           1.44624338674497    0.04271050880038    3.97073004873868
O          -0.84333623570534    0.39051137640996   -2.76614356687234
H          -0.00045048130948    0.17584795099858   -3.22890465244447
H          -0.71952621888730   -0.34918014776914   -1.68591440840508
H          -0.69464835516610    1.31604621083973   -2.38645480764743
O          -1.65551771783342   -0.20302847071747    2.63035915263179
H          -0.96061642975976   -0.29997402819916    3.31219348908852
H          -0.89348652857960    0.45470823268541    1.59904243306108
H          -1.78219688156373   -1.11227731796547    2.26989302792670
N          -0.11411376088822    2.55348192494843   -1.49469959356854
H          -0.73095221693296    2.82569222919989   -0.73984530908866
H           0.25101603574819    3.39240610187076   -1.92755308892589
H           0.65972219554803    2.04195623892917   -1.07607969094918
