    26
        -50.45757823  Gyration_radius:  2.55675371908 Dipole_moment: 3.359
 S          -0.35054725608156    0.38004071046737    0.28657960161749
O           0.22080111622183    0.71301695371708   -1.07596904279216
O          -1.69300832945781   -0.12576612302585    0.15636555709257
O           0.51020656903928   -0.75704596847388    0.84354247380594
O          -0.21791714131797    1.54552185166201    1.12686298966887
O           2.13642571951519    2.36904309166703    0.07849547056508
H           1.25097908772171    2.34445709695115    0.48000550671199
H           2.00180192168522    2.12317297232070   -0.84065497657096
O          -2.94705049604167    0.03400829442947   -2.21438852557496
H          -3.21928330244489    0.94280536000940   -2.35057321112956
H          -2.65578465488212   -0.03159887857587   -1.28375825266258
O           1.06351557315301    1.25886873771637    3.50036936053419
H           0.51589178020617    1.50600590927265    2.73316345995612
H           0.48318882184209    0.81364410771130    4.11915623563998
O          -0.53075514770854   -0.94165760411820   -2.71047790563576
H          -1.46051876213950   -0.63283664327003   -2.81474954158738
H          -0.07336929760178   -0.04526874268675   -1.86401696994373
H          -0.60005420787727   -1.75538896510914   -2.11386533590538
O           2.66622176195937    0.24569063502038    1.59105972319180
H           2.36495494271196    0.57492633636239    2.46169824612953
H           1.45393012477714   -0.38900676551973    1.13863434948734
H           2.72270888652473    1.05066820236939    1.02404952737770
N          -0.86006673028592   -2.71281498614293   -0.81806305931866
H          -1.30103827951041   -2.00365844845989   -0.23636213025794
H          -0.00720316155349   -2.99085505357549   -0.34932318714496
H          -1.47402951845660   -3.51597211071227   -0.86778036325818
