    26
        -50.45757821  Gyration_radius:  2.55675441274 Dipole_moment: 3.358
 S          -0.33522498150109   -0.30168722672434    0.38205907138408
O          -0.26066665403279   -0.69539746511383   -1.07853505139136
O          -1.50421108405590    0.50445880578249    0.62404424574730
O          -0.24894525866323   -1.50304215282688    1.17661075986284
O           0.88712646103961    0.58092928816724    0.64859159525879
O          -3.37084828886798    0.74339364527054   -1.29342122012485
H          -3.87399493019457   -0.07163230047726   -1.32733619456983
H          -2.82464908755803    0.69853350028523   -0.48416565352489
O           1.67350790736726   -1.62593564951053    3.08615507893072
H           1.40932199588265   -1.08798797416868    3.83356048335725
H           0.89174458410919   -1.70567524362224    2.50990117861961
O           1.45979789312388   -2.79768479102058   -0.47397277548955
H           1.13536549940952   -2.48668303902076   -1.32332722529169
H           0.75269966342255   -2.58810754209431    0.15999608829925
O           2.87023892285873   -0.92320953495218    0.78094333405169
H           1.76272666800436   -0.00717088716276    0.67415097919725
H           2.75545306536198   -1.21328079398874    1.70823499242349
H           2.57725329724251   -1.69320188225855    0.23885681535060
O          -1.03091607270840    1.15956378141974   -2.47144489095593
H          -0.73943154450502    1.93976130206296   -1.89771323059288
H          -0.57768545036633    0.14491363290541   -1.76842522113485
H          -1.99814610460675    1.07756829019375   -2.30272388759713
N          -0.39702047933790    2.87210962305514   -0.60267090741952
H          -0.79558482270660    3.79628610641441   -0.49529714837556
H           0.59303909922392    2.92529527732443   -0.39933829419998
H          -0.81095027793589    2.25788324005544    0.09526709817788
