    26
        -50.45757819  Gyration_radius:  2.55680763212 Dipole_moment: 3.356
 S           0.24104323255654   -0.33098794238969    0.42620362221038
O           1.01831983746267    0.02978208053812   -0.82268622702513
O           1.11168351238208   -0.15691285855546    1.56360568444924
O          -0.91922318392476    0.66454680801043    0.50864583385593
O          -0.33331480262417   -1.64554067049461    0.29592603093038
O           0.26192630742614    1.44816163836106    3.57826874936770
H           0.67010377636606    0.78793798127975    2.98912570256905
H          -0.40166076097781    0.98491621048420    4.09099762974602
O           0.39892965504483   -3.21566938981157   -1.75762398490632
H           1.27570694208790   -3.55818668034346   -1.57731431759430
H           0.08892495782824   -2.79789756581982   -0.93022905751409
O           2.43786034366655    1.97977289036650    0.56562762193759
H           2.20750934418761    1.15980641196344    1.03513302705497
H           2.46435256363457    1.73753441295819   -0.36388446383531
O          -0.14219138026604   -0.83398854870902   -2.79293409551202
H           0.50312421152554   -0.32151160920612   -1.76773633621597
H           0.09033868367230   -1.78625970669806   -2.69411333683108
H          -1.09900153241131   -0.77263763352676   -2.47126365386124
O           0.02437237140998    2.83671587891155    1.28568445631596
H           0.96276123472971    2.76738218993118    0.99037868046127
H          -0.56396332513274    1.61541039066338    0.79663656033524
H           0.04897462406691    2.63619064092225    2.24295180258431
N          -2.41901879559914   -0.79661778138263   -1.51139347318315
H          -3.22782141937542   -1.36171548172328   -1.73721532426143
H          -2.73793897237362    0.12701679273504   -1.24758593830429
H          -1.96179742535947   -1.19724845842720   -0.69520518276434
