    26
        -50.45757820  Gyration_radius:  2.55679833468 Dipole_moment: 3.356
 S          -0.10508444777001    0.17863429949564    0.55354559478566
O           0.12702363144513   -1.23643041017886    0.01700939634392
O           0.47580878362812    1.12180143456991   -0.47941291106996
O          -1.52937441550170    0.36678742148094    0.65818527924658
O           0.62470703858378    0.35635386034910    1.78553833463810
O           1.74233849038848   -1.83616059263576    2.92622125071722
H           1.05647678023433   -2.35609710674373    3.34705518717763
H           1.33948857229645   -0.98018526827171    2.69254630128594
O           3.01754632076889    0.83438685745709    0.61671653234448
H           2.72750612284108    1.32608126684684   -0.15626373857270
H           2.25626182560267    0.84070613768537    1.22188454726534
O          -2.68353363037701    2.46431918952313   -0.56115244246650
H          -2.40727588054012    1.70492848116295   -0.01138653855604
H          -2.48793245666386    3.25312934501826   -0.05312039413593
O           2.53809761412811   -1.76950800277925    0.35661458542920
H           1.14617545434209   -1.49585157993672    0.10195060284036
H           2.94492160895412   -0.87119260952174    0.36684252887303
H           2.48544829439972   -2.02984275041145    1.29821400567757
O          -1.07739145289552    1.34817294783314   -2.35315652678151
H          -0.19426662636191    1.23497352268024   -1.38514216995746
H          -1.49782009856963    0.42845575984577   -2.34183628127866
H          -1.74496945931933    1.92949692781723   -1.92060662397352
N          -2.11386107941777   -0.99087935829997   -1.82214942880645
H          -3.04199670532589   -1.29449866743623   -2.08837116028936
H          -2.12101768601290   -0.75846640513695   -0.83136101980853
H          -1.47727659885961   -1.76911472041273   -1.93836492091805
