    26
        -50.46547032  Gyration_radius:  2.52310401995 Dipole_moment: 4.989
 S           0.86203230255938   -0.18908617671875    0.02347504577082
O           1.13239137751601    1.22613918546411    0.35691318776348
O           1.44114233034947   -1.09822962690538    0.97923651125534
O          -0.69746937212383   -0.34045061692258    0.07638485279424
O           1.20773680541884   -0.44629271976642   -1.36152110848932
O           0.08496206998234   -2.65617318631020    2.65496280904179
H           0.68439171472544   -2.15649458757444    2.06199970028103
H          -0.05827018684484   -3.50598325473641    2.23712727232409
O          -0.56643324882659   -0.85173560700117   -3.26343232374037
H          -0.76158329108341   -1.78554955785187   -3.34798654394534
H           0.12838621377130   -0.78240286503884   -2.56877747864445
O           1.01260418654693    0.88240238434751    3.00192938380610
H           1.13060288797605    1.15849403350375    2.07416094857700
H           1.57793367949250    0.11133567511067    3.10392240232381
O          -1.93976117937581    1.02391225135378   -1.96339322042696
H          -0.59824647806578    1.79938328801671   -1.99551582306790
H          -1.69526188809215    0.33103247054412   -2.61386956081082
H          -1.84290775484447    0.58112538517630   -1.10452340383552
O          -1.29529749060758   -0.34805164091216    2.51547028427580
H          -0.99400356814125   -0.33200361019116    1.07103453896047
H          -1.02280625572246   -1.25615370672432    2.75515637898203
H          -0.57666567256297    0.22642210415814    2.87091948166862
N           0.44335314938896    2.08053618032434   -1.93510465992668
H           0.76062733581753    1.85581950946634   -0.91700407025568
H           0.61009101643144    3.04660504754734   -2.19836708916810
H           0.97245131631921    1.42539967164682   -2.51319752551434
