    26
        -50.46547035  Gyration_radius:  2.52316552862 Dipole_moment: 4.984
 S           0.72985240506346   -0.49582785578379    0.03656884565460
O           1.12999190999234   -1.21692275782415    1.21781530209332
O           1.53474938617558    0.72640407321792   -0.17694711413062
O           0.68896487440592   -1.28121223663604   -1.18219791435590
O          -0.74303088303931    0.00331051968808    0.23512015314503
O          -0.32939671576940   -1.51580538251149    3.42133457186697
H          -0.83656694961859   -2.32490375828664    3.34701576253641
H           0.27874324749220   -1.50169561314139    2.65284887733718
O          -1.44989602699113   -1.52097281093604   -2.69835489489728
H          -1.96965621804297   -2.27909143880822   -2.42928682657207
H          -0.65320288391023   -1.51999422638993   -2.11930826494367
O           1.81888191289804    1.29019409201806    2.41726385163217
H           1.84316469638983    1.19680017209014    1.44687593000840
H           2.08885370731003    0.43131810468892    2.75490350019248
O          -1.80543116551928    1.04507312433799   -2.07827246229791
H          -1.70401013813469    0.88824595797597   -1.12528757684891
H          -0.31103862203282    1.17939868080112   -2.46779958249178
H          -1.94810847064635    0.14826377191940   -2.45012884682303
O          -0.82053152334394    0.98328487579379    2.54607803150182
H           0.10742810173478    1.30746502738852    2.62713511459969
H          -0.81903946780796    0.43355148253031    1.17658282759871
H          -0.84014727791354    0.16355750739551    3.07888152826795
N           0.75387710536426    1.03219863613715   -2.57573777586996
H           0.89979775238953    0.07854895356522   -2.91129228436219
H           1.16446516745920    1.02621084708245   -1.56610336166353
H           1.19128605609267    1.72260024368637   -3.17770738118249
