    26
        -50.46415472  Gyration_radius:  2.51954781597 Dipole_moment: 6.936
 S           0.56889942241891   -0.06691399406861    0.10372804078658
O           1.21683388765188   -0.67928118567764   -1.07080507268208
O          -0.36838905642377    0.96117514394728   -0.35023049022347
O          -0.24717592058360   -1.21672621317734    0.73972428859053
O           1.52057699658809    0.43654625983335    1.06372582747703
O           1.63607813320886   -0.47145837889593    3.55785098690427
H           2.14534181719332   -1.28290821952786    3.55096743512772
H           1.71322906400606   -0.09376191085701    2.65610159921269
O          -0.96580381783541   -2.07638843185490   -1.80768307335971
H          -0.10345113435826   -1.71883415501748   -1.52320426313339
H          -1.34422890331901   -2.45773695791119   -1.01176884357740
O          -0.54064964430717    2.13126620331225    2.03454427551336
H           0.39567372032461    2.18829505960129    2.24637333962866
H          -0.56754770800726    1.83744058890505    1.10422719649027
O          -1.83333737202437    0.36439011109687   -2.44723968745968
H          -0.49530903875790    0.58242535106293   -3.04665880028268
H          -1.79864838920170   -0.61100234774926   -2.33125873269172
H          -1.55014685607405    0.71284807925577   -1.57242507125622
O          -0.98709903310688   -0.32370716395911    2.97209841482745
H          -1.02582013682765    0.64035081313186    2.77253365669742
H          -0.60483099862078   -0.89296652224812    1.65310698602148
H          -0.14668449577156   -0.44296481558198    3.45961080626700
N           0.59968796560969    0.62885246582611   -3.19762508314019
H           0.92327888986685    1.59050337759574   -3.17981343734324
H           0.88960968868309    0.15885273972453   -4.04926833916805
H           0.96991291967539    0.10170413323940   -2.32661194922424
