    26
        -50.46061512  Gyration_radius:  2.54378262861 Dipole_moment: 5.991
 S           0.25828612271049    0.21920512763192    0.36539999283121
O           0.62621335517561   -0.93387408737826    1.17803596068256
O          -1.25935093015771    0.41897738788664    0.61447664051175
O           0.96689964256481    1.42723627134819    0.70184750865255
O           0.40608626330083   -0.11589937735205   -1.06895847700029
O          -1.54242848283856   -2.32709055581067    0.72666816252788
H          -2.24642936613180   -1.67229980320317    0.71004047589516
H          -0.76543910740191   -1.84406068838623    1.09533046781286
O           0.39600396986590    2.43324888905712   -1.88668171782601
H           0.45194570841690    1.46913052727988   -1.75882985437474
H           1.02804096726919    2.80153984875315   -1.26237842448233
O          -0.24892492436954    3.62535376627184    1.57918367637800
H          -0.40601527310960    3.52420235935055    2.51879361384690
H           0.30932220641501    2.86564412042117    1.31203377401338
O          -1.80161626387376    2.65577692673476   -0.39573374613626
H          -1.54046931945881    1.31952096133546    0.19195659381088
H          -1.44173674283455    3.23274131404808    0.30790038805770
H          -1.13264488849969    2.69482670096588   -1.11807302822437
O          -0.15906554602484   -2.50198716964778   -1.40688520451914
H           0.74397312207390   -2.89399797046065   -0.92127919240152
H          -0.86127460949271   -2.57891653622541   -0.67330323587764
H           0.05493703766882   -1.47342201313278   -1.39985678628004
N           1.86305435034650   -3.10247723412313   -0.04166896849696
H           2.77714573957024   -2.95797095471172   -0.44960336051611
H           1.86936526026100   -3.96342870369697    0.48948652227387
H           1.65412168855977   -2.32197911695441    0.59209822883974
