    26
        -50.46061507  Gyration_radius:  2.54339684337 Dipole_moment: 5.988
 S           0.33333338215918    0.16962986712908   -0.33331736495851
O           0.47346299184162    1.04731317211018   -1.46675961612035
O          -0.22215750755856   -1.20058398332585   -0.80127214380588
O           1.58911789135640   -0.14149960242147    0.33873886475113
O          -0.63804139426667    0.70132199238096    0.64903029661498
O           0.77100636023874   -2.33199170334076    1.51405287063023
H           1.23830653740369   -1.62435137132177    1.01033782733333
H           0.19755591343629   -2.74981334862778    0.86502785979567
O          -0.19387135607436    0.33732321444328   -3.94229842126629
H           0.53589057824973   -0.15581126238291   -4.31896366287419
H           0.12759096814218    0.69134780253230   -3.08693166560674
O          -2.26019811282989    1.75653444933939   -1.20038406249063
H          -1.76869560834583    1.46774800681757   -0.41040513440290
H          -1.60865142334559    2.20930412075347   -1.74387491153243
O          -2.12623282311139   -0.64583381720088   -2.34554298484556
H          -1.02972615996853   -1.02711838173473   -1.42286023391029
H          -2.42481042335763    0.21207695944214   -1.96367125476130
H          -1.61157711501890   -0.39797182931938   -3.13997164832654
O          -0.27853489869626   -0.41671658682555    2.82831646270199
H           0.66822903309328    0.09378319605116    3.05204115610592
H          -0.55985539914539    0.08643869235950    1.95051033038137
H           0.03139276804403   -1.31778906190293    2.46881879944442
N           1.96167027444537    0.71285265938564    2.95604798157088
H           2.09154325789920    0.54660933738000    1.95102200765925
H           2.71619663414906    0.26835049905374    3.46248737999884
H           1.98705563126385    1.70884699922734    3.12982125792016
