    26
        -50.46061510  Gyration_radius:  2.54389895823 Dipole_moment: 5.985
 S           0.26656250779804   -0.41714428975887    0.06257661301604
O           0.40283391939595   -0.87318387199431   -1.31526803058071
O           1.13312121966468   -1.09129222233548    0.99489485835726
O           0.44449358830024    1.05149202229350    0.12032140976572
O          -1.21368076277619   -0.69372375024833    0.43320195925226
O           0.22413722769819   -2.53779355351609    3.03478799174087
H           0.00117907720979   -3.40981336414905    2.70673091874708
H           0.67188484933625   -2.07397149197987    2.29682416613601
O          -1.92466971776634   -0.01563797259142   -2.14976513333037
H          -1.10565641624629   -0.51652461884785   -1.92369240070487
H          -2.51705518972183   -0.17713202021832   -1.40978067706952
O           0.87805567138547    1.11278359797807    2.76126889692187
H           1.52134201500976    0.40141785813850    2.83241064329518
H           0.77656853462273    1.26232148141598    1.80404121265813
O          -0.46051857889279    2.06140866009525   -1.94970880696652
H          -0.09095879861845    1.75853042399036   -1.01346503485007
H           0.34034417956776    1.69585669286441   -2.60466520721692
H          -1.20856260596473    1.38971512216359   -2.11102016621771
O          -1.34317609118802   -0.35083683365415    2.92000272792367
H          -1.32682458087250   -0.53974504669121    1.44903031563168
H          -0.94047080716313   -1.19343295948229    3.21198048862588
H          -0.63466303520217    0.32210388023943    3.04698457673593
N           1.35986191967282    0.89693561143298   -3.23233023278358
H           1.23712574307786    0.07007606421157   -2.63602713389446
H           2.30799573068186    1.23474137576212   -3.13350577800430
H           1.20073039099594    0.63284919487646   -4.19582818719899
