    26
        -50.46379211  Gyration_radius:  2.52744713962 Dipole_moment: 3.680
 S           0.72888670684172   -0.01370600525020    0.20454107319324
O           1.13030569000750    0.17522552028385    1.57554474151193
O          -0.44583531607051   -0.93300088625675    0.13568250907299
O           0.16868360665272    1.36712231059387   -0.26713522827597
O           1.77099471762120   -0.43888745480364   -0.69468221505203
O          -0.19411590988047   -1.44450279479474   -2.48230851735809
H          -0.36012391383863   -1.39837645773183   -1.52321905112629
H           0.74253431983907   -1.64747664802502   -2.56057563398856
O           2.59686502464358    0.98556004738275   -2.78338220364307
H           2.41103234927285    0.39985609800346   -2.01974433714441
H           3.24276813270575    1.62373420633648   -2.47797679656186
O          -0.64950712068708   -2.20294096264625    2.52783359233926
H          -0.56492261220692   -1.86423960103573    1.61646314738953
H           0.19573190654552   -2.60484069503050    2.73539552986033
O          -0.07989771518815    1.20158728713686   -2.76715936906697
H           0.85930736462985    1.28868249763861   -3.02884857016479
H          -0.27184396563995    0.23872354789753   -2.85507419867298
H           0.05466179029870    1.34557702083372   -1.29379316694464
O          -0.73466838878858    0.33364852988302    3.40593515595884
H          -0.84385410655605   -0.63942964119244    3.43601880299302
H           0.11120330649982    0.43324755392319    2.90904503659332
H          -1.61018063964820    0.68392184592249    2.25670640491035
N          -2.02048928956940    0.77818785383300    1.23602540774059
H          -1.67782250737529    1.63981286271614    0.80919192123961
H          -3.03225388065307    0.70682118038359    1.19740320476419
H          -1.52745953947434   -0.01430723599550    0.70811277042698
