    26
        -50.46061525  Gyration_radius:  2.54397138602 Dipole_moment: 5.981
 S          -0.27617739742239    0.16694454090269    0.38064401503429
O           0.09693658450105    0.56441903080033   -0.99590241880599
O           0.90745079740121   -0.67059002878173    0.93064322622832
O          -0.48869088838054    1.31570634179813    1.22311189341113
O          -1.40344273392939   -0.75621593584269    0.33499823733752
O          -0.05296503187415   -2.84512826637917   -0.47793386911843
H           0.78654284583878   -2.78108260393764   -0.01348922052286
H          -0.63445711822305   -2.18784701662039   -0.02770312277206
O           1.00821769259695    1.84677113888780    3.35784718735467
H           0.67892593644236    1.32487329198886    4.09062279745710
H           0.36510427172139    1.72966999462827    2.62784695745259
O           1.51959797509696    2.69756104238999   -0.22599583480020
H           1.01894129014564    1.99093329853187   -0.67204245785084
H           0.89473661599696    3.09041886744664    0.39054556997598
O          -0.29109247725354   -1.34329655297653   -2.52361873583409
H          -0.03964565014127   -0.48457143962605   -1.97198408940494
H          -0.08518423099233   -2.08979521368718   -1.86229678076653
H          -1.38585932911640   -1.28446751788818   -2.49094194061992
O           2.71038630491462    1.00202629592416    1.44991518012087
H           1.69032137333107   -0.02766409203972    1.13663899027717
H           2.50996060830293    1.69751320680954    0.78130188178993
H           2.35428681348579    1.35537560957871    2.29005007907814
N          -2.75252064241235   -1.12014478179502   -2.06804988747978
H          -3.24318637294617   -0.32743814444923   -2.46009526090464
H          -2.54184004709005   -0.92661786669096   -1.08193472779883
H          -3.34634717998951   -1.93735317896985   -2.12217765883411
