    26
        -50.45606870  Gyration_radius:  2.57834771502 Dipole_moment: 2.294
 S          -0.55727226844618   -0.65718048306296   -0.28177304108551
O          -1.55397765118603   -1.45548810680582    0.37741367999501
O          -0.71898161671346   -0.72406746704509   -1.76775005673122
O          -0.81674014979248    0.83876845605846    0.04423932098859
O           0.80257368095119   -0.96929697722821    0.10519203318773
O          -3.39994412865524   -0.52008437936446    2.05784967388113
H          -2.81336822321204   -0.99090105252038    1.43146114004510
H          -4.18694857536383   -0.28439091213044    1.56485286407908
O           0.18133358014301   -1.29057800148872    2.67276416100346
H           0.57131054805992   -1.23598925342888    1.77963442575949
H          -0.50238403412935   -1.96301969760818    2.60993172415676
O           0.67018544875956    2.60758539765105   -1.38762225188958
H           0.15852531400971    2.06041682995107   -0.76440322410339
H           0.09344808778761    3.32350602190734   -1.66035481020871
O          -1.21330893766816    0.94643410211590    2.48705636436165
H          -2.11855497217293    0.56769571194776    2.53593347047476
H          -0.61721559834518    0.21216255167763    2.77641793571693
H          -0.97705150202794    0.94770326982177    1.09616132938606
O           1.10247479476339    0.45917804936149   -2.89132288683299
H           1.04119049696515    1.35073351768284   -2.47470147578451
H           1.93473224754733    0.03186282479936   -2.49723811161694
H           0.12356179890894   -0.19440078279208   -2.32929179335537
N           3.07103530037879   -0.64320935555389   -1.57508100745166
H           3.79131402278319   -0.04154901070978   -1.19691717555231
H           3.50773118988009   -1.49849025120248   -1.89276252383963
H           2.42633115678728   -0.87740100206595   -0.81968976457145
