    26
        -50.46972927  Gyration_radius:  2.4305961779 Dipole_moment: 5.113
 S          -0.05659757747993   -0.90204311475012   -1.28394728427476
O          -0.13880545938995   -2.26241956634280   -0.80831343991289
O          -0.63825720167018   -0.64684711891553   -2.57558361256027
O          -0.90372720839655   -0.00112990810038   -0.28782620090187
O           1.31735615703457   -0.37155847608052   -1.17203537552102
O           2.06702693017041   -1.74674022608318    0.95092940026516
H           1.96420996159886   -1.25661832276698    0.10912427256939
H           1.69746138365126   -2.61593141260743    0.77030918641510
O          -1.32888631275539   -2.70653417911329    1.51644792325845
H          -2.17718627718565   -3.12342525863367    1.36367105038570
H          -0.90284536797866   -2.62916750839853    0.63412977946824
O           0.07626467183847    2.22369783522207    1.71400674577882
H          -0.85292739461116    2.42364975482222    1.84244909363172
H           0.19180504111551    1.30401623798998    2.01326174686543
O          -1.25075859352810    1.86747878275057   -2.46376399116617
H          -2.09557340083843    1.83496333791241   -2.01032062731842
H          -0.00523883665867    2.20658518688582   -1.50831526898604
H          -1.02918731476031    0.91585328741034   -2.64597452324524
O           0.06019777904951   -0.49067625917448    2.08903156851641
H          -0.57105377131062   -0.19338605760254    0.63045832272315
H          -0.53412895026733   -1.24401595113732    2.25382646941855
H           0.91730766446167   -0.91642640232356    1.82440710436692
N           0.85291870956545    2.13970726832599   -0.88821283550722
H           1.18376262633338    1.12708162201094   -1.01746842546624
H           0.58596746502632    2.26360669450857    0.11585504053302
H           1.57089526699736    2.80027976416571   -1.16614609933001
