    26
        -50.45606833  Gyration_radius:  2.57863194062 Dipole_moment: 2.271
 S           0.73820500786289   -0.28311900401766    0.44324689396729
O           1.91002651881991   -0.56755252968220   -0.44301705186851
O           0.39857473604716    1.12404829788091    0.41614865531892
O          -0.42162898069900   -1.06913315098081   -0.22597971434593
O           0.95561821710018   -0.81006424914136    1.76243832499339
O          -0.54316828315302   -2.67883546622128    2.93206424095332
H           0.11387153849838   -2.02749036406860    2.61253704943767
H          -0.18318858251410   -3.54426663801359    2.73361476015371
O          -0.78896274787474   -0.55805136645797   -2.87106368900958
H          -0.94244477471638   -1.39490392139403   -3.31343526583237
H          -0.79880883818542   -0.74347945715641   -1.91448911158492
O          -1.17538672128947    0.96185489805244    2.55586042651980
H          -0.56534965383622    0.59442197161780    3.20117108594752
H          -0.62380158030587    1.19963638555287    1.78650712990193
O           1.63176320076879    0.51197049087048   -2.62007869528713
H           1.46087399892360    1.48250606698661   -2.37775184184178
H           1.82362488510449   -0.06666516780269   -1.46459629935262
H           0.75864453569134    0.15356244372595   -2.90486451110478
O          -2.22135096564419   -1.20852365847151    1.47014136427337
H          -1.84128053380848   -1.88190881191747    2.07639931238162
H          -2.07311097776133   -0.34478070413308    1.92866663910126
H          -1.23930879852901   -1.14424105304268    0.45988275821057
N           1.00247756661592    2.88676132362690   -1.73038512111394
H           0.71743127025780    2.47144609148853   -0.84307323511329
H           0.19813047300419    3.35158327245508   -2.13137568015531
H           1.70854949963211    3.58522431024243   -1.53856844455286
