    26
        -50.46379212  Gyration_radius:  2.52747272578 Dipole_moment: 3.677
 S          -0.66545834150286   -0.20968228992662   -0.29491445439227
O          -0.77809595384108   -0.65587925553023   -1.66048954784429
O          -0.32627373299104    1.31405268880721   -0.37340592491997
O          -1.83984344747021   -0.39637726527769    0.51824160060396
O           0.53419948603153   -0.82350098946660    0.34826793772918
O          -0.22853502620717   -0.27097839417179    2.85611320686799
H           0.13311279559741   -0.58881367311304    2.00885739373636
H          -1.14178812495665   -0.57171218912465    2.86270554331859
O           1.34036722900600   -2.90030819400722   -1.20430094383209
H           1.03713548966530   -2.24058831964903   -0.55202340809420
H           0.59287518556031   -3.48194262730845   -1.35271527034223
O          -3.19812323110133    1.59491158792775    1.64163035202422
H          -2.80950543154359    0.78960187339469    1.24002742542657
H          -3.81200321198265    1.94493859288070    0.99479240151624
O           1.41678339587924   -0.95643701591729   -3.05512933961877
H           0.47918946154116   -0.80042226338131   -2.79252590447269
H           1.99696424211905   -0.03744146351668   -2.04166526458460
H           1.60350325520636   -1.82769105876079   -2.64778342243379
O          -0.60410854017584    2.21031887267882    1.96302750777242
H          -1.58137223207494    2.24423204308496    2.00805667411866
H          -0.36129962124491    1.40858913951325    2.48255047927441
H          -0.43224016971605    1.72583283453578    0.56820123895434
N           2.17132686947364    0.52546825182571   -1.10764851711695
H           1.67869920723155    1.41851725846822   -1.15136880393801
H           3.15385614434693    0.63967951449071   -0.87996112853245
H           1.64063431315400   -0.05436763845503   -0.37853983122691
