    26
        -50.45606834  Gyration_radius:  2.5786547873 Dipole_moment: 2.270
 S           0.46953414972716   -0.77363313248058   -0.06160979206523
O           0.94506671320975   -1.08825734784813   -1.44533100120693
O           1.10703855698072    0.42344302600539    0.44507260539619
O          -1.03964261202111   -0.46632405272419   -0.25827032401702
O           0.60223265566006   -1.91859571769058    0.79667229909027
O          -1.41738357824003   -3.15963754143246    2.01730001466947
H          -1.74775076062494   -3.85916681875930    1.45203993204430
H          -0.59380644443860   -2.83462495048902    1.60018114118111
O          -1.60763939952079    1.39256202827920   -2.15982195974558
H          -1.50825235990739    0.78690617563761   -1.40301252818166
H          -2.35310690736472    1.07192861028485   -2.67073078339004
O           0.34545431606594   -0.02626904432927    2.95490284576933
H           0.71160382741408   -0.90286134333742    3.09993540630841
H           0.72291314419402    0.27302507422321    2.10601937050826
O           0.91560058207288    0.91492259483540   -2.84868268086490
H           1.46008549998992    1.58241771133708   -2.31220715917720
H           0.96029082680805   -0.17334983623050   -2.12647698279739
H          -0.02218831670188    1.20416731915509   -2.75560091224568
O          -2.05692259405327   -0.56972924050525    1.99771911006772
H          -1.52922335124140   -0.47920522398052    0.69301422825312
H          -2.06481955396337   -1.54127443955594    2.14370726342378
H          -1.29156998492848   -0.24118618056065    2.53126484668828
N           2.16092671021312    2.49931395786630   -1.18546972172182
H           3.16871346040062    2.58567442508690   -1.18882664788241
H           1.89721310550881    1.88609674447069   -0.41381882145337
H           1.76563229477292    3.41365722275045   -1.00796976866253
