    26
        -50.45606789  Gyration_radius:  2.57895778138 Dipole_moment: 2.241
 S           0.52325146196553    0.65347805962726   -0.34821249964558
O           0.87978129573983   -0.67227013282730    0.37664630252970
O          -0.90625809749265    0.66794452173582   -0.57641564731009
O           0.91831682241279    1.70806527026746    0.63806839618764
O           1.31111043385392    0.75445774111388   -1.54574546984248
O          -0.15720636230026   -0.94257580126923    2.87614779899844
H           0.18458317388083   -0.98352265796248    1.96464241566048
H           0.52899662065507   -1.30080758285448    3.44213179107848
O          -0.74856359750339   -0.86736198052744   -2.74465353054665
H          -0.13898317573182   -0.35566084726311   -3.28330898745996
H          -0.98102326033628   -0.28579193047262   -1.99605702661747
O           2.94693258894781   -1.13852624730072   -2.46731978973769
H           2.42466525985121   -0.34681759275800   -2.22570827213809
H           3.82394733430470   -1.00348005018491   -2.10595416654682
O           0.88425894502499   -2.42667923227238   -1.37142821912891
H           0.87801865947793   -1.47400031317400   -0.33234874961332
H           0.17567525748821   -2.06546963645960   -1.95941378154227
H           1.72502404804445   -2.21402296625358   -1.83333678099595
O          -0.56185716460213    1.67014213590711    2.58584395568709
H           0.24129903055693    1.73161016868162    1.55304791886907
H          -1.48687619811062    1.74380957557826    2.17633477421496
H          -0.47655877025434    0.73249419948381    2.87733498298682
N          -2.82545460127776    1.64895359698858    1.27836340443404
H          -3.52964997015365    0.97509775170355    1.55007993112363
H          -2.34026400970393    1.28517374780930    0.45792197809640
H          -3.29316571474294    2.50576019268114    1.01333929125999
