    26
        -50.45606770  Gyration_radius:  2.57906747107 Dipole_moment: 2.225
 S           0.70392538588597   -0.53817677360799   -0.19744008499599
O          -0.82078366493730   -0.82000049466981   -0.12331863040029
O           1.00603490182540   -0.63286409576923   -1.66071664115217
O           0.93510880602736    0.80408604002634    0.29282769616716
O           1.40113838360186   -1.55978644119036    0.53414860169767
O           0.23603373097364   -3.48572721495183    1.96340928236646
H           0.09138672263541   -4.25149916184229    1.40591816395922
H           0.79261558294501   -2.86941343649850    1.44547799476043
O          -2.36843485826784    0.70739941923003   -1.75730253248489
H          -1.91782274159025    0.17557240106464   -1.07658815785184
H          -3.02146980174622    0.13502385879924   -2.16407298340339
O           0.85445756970314    0.06865208301812    2.84940599100840
H           1.53845156809841   -0.60623857132920    2.86444674060477
H           0.93688888236506    0.49943321625082    1.97744698169215
O          -0.01284542266177    1.22905917347526   -2.87841400248043
H           0.56126676807602    0.22620218544067   -2.25897435850502
H          -0.95811816780092    1.14094270729991   -2.61406370174334
H           0.33157972711347    2.04573944353214   -2.38562771849183
O          -1.30667856128058   -1.32914281500529    2.25095020399144
H          -0.92858224938142   -2.23356985724799    2.31878108312205
H          -0.63476964982156   -0.74284197501117    2.67898597182590
H          -1.09254213762788   -1.02927126412484    0.89086917091588
N           0.83238007837507    3.14701473374937   -1.31537693507287
H           1.71815615846712    3.60900519806517   -1.47381072808985
H           0.95770230710125    2.46956313285153   -0.56289892112666
H           0.16492067192714    3.84083849843881   -1.00406246630899
