    26
        -50.45606849  Gyration_radius:  2.57852391816 Dipole_moment: 2.291
 S           0.54828115973278    0.21403120212855   -0.69267297922262
O          -0.25571949593828    1.09652324856852    0.30038850546990
O           0.44597507726846   -1.16119503343471   -0.25174334057869
O          -0.16483029761835    0.41349255242921   -1.99302425804258
O           1.89542602987574    0.70873216360290   -0.76739748724416
O           2.88800222595197    2.67942412907655    0.72942131151186
H           2.75786067293872    3.51555525992253    0.28004018315837
H           2.64784923526246    1.98126103413191    0.08690733696502
O           2.35885995829527   -0.89837321652543    1.57955805894280
H           3.08660613187327   -0.58458528604289    1.03592135387809
H           1.66565641976272   -1.17116832716841    0.94889864712481
O          -2.94046817670426    0.66699372417675    0.33326543798362
H          -3.37505607349500    1.52160486827333    0.35099677562876
H          -1.98956255125212    0.83568867803727    0.46286986967603
O          -2.38463611828745   -0.61113337504410   -1.93053461951127
H          -2.77826944243327   -0.17460724958962   -1.13905239844934
H          -1.20094866157649   -0.06610227865845   -2.00783427220371
H          -2.19226615276938   -1.56646267324548   -1.64630306703292
O           1.18385442729374    1.35669563847912    2.29957208744294
H           1.84906049784209    1.99308597978557    1.95656082853467
H           0.31406822406389    1.22692603560800    1.19596581001802
H           1.64123917781640    0.47993708799492    2.28087733329289
N          -1.65020463640310   -2.93357559124578   -0.98662030475762
H          -0.79677350770825   -2.50944104888201   -0.62214049851314
H          -1.38707585747276   -3.69540714221495   -1.59773835483202
H          -2.16692828633339   -3.31790037017665   -0.20618197921140
