    26
        -50.46379212  Gyration_radius:  2.5279001231 Dipole_moment: 3.681
 S           0.22959104712203   -0.68797153770719   -0.21288028362591
O          -1.29455680824243   -0.38543563891055   -0.38108896675297
O           0.78874374035531    0.55531634744794    0.39644941932264
O           0.31005651446422   -1.77894920172887    0.72512874582938
O           0.81315795047857   -0.93687888600996   -1.50628510429771
O          -0.56215126424994   -0.92285197896172   -3.78240807535362
H           0.03425128306430   -1.00299094894143   -3.00868440763555
H          -0.96673074683476   -1.78363943977269   -3.89675052276974
O           2.22125123471589   -0.16229760019534    2.58885113296105
H           1.81595161539087    0.14665657857324    1.75646730266076
H           2.85738759485052   -0.83315380465004    2.33511647258653
O           1.04688605112025    1.86265606224334   -1.92775439062215
H           1.48353362369112    1.20857640225665   -2.48103983660798
H           1.06675370182668    1.48335105318913   -1.03035359770728
O          -0.12781966814651   -1.27834356585392    3.25713612822130
H          -0.05504572695206   -1.72879522655046    2.38300321079488
H           0.77793198093829   -0.92742745261796    3.38530498317145
H          -0.82729478098357   -0.07641757080342    2.73312903499730
O          -1.48594329294633    1.15907660710957   -2.36028626233982
H          -0.62678186595702    1.63628153045388   -2.28571354580670
H          -1.34581420699180    0.51407631906311   -3.08324110091859
H          -1.42096498962280    0.24503913421141   -1.18977357994657
N          -1.14357196680456    0.75836541855409    2.08308687088643
H          -1.34890237500129    1.61288754554934    2.59098548501251
H          -1.92586681691095    0.45894884587084    1.49970864534395
H          -0.31405183836770    0.86392101818239    1.41189221260560
