    26
        -50.46824846  Gyration_radius:  2.38798177642 Dipole_moment: 4.304
 S          -0.67991701664099    0.59665864683520   -0.92417048191182
O          -0.37889865349679    1.79306918369164   -1.69870025534954
O          -2.06878700867705    0.21736251888043   -0.90039863424702
O           0.20940336455789   -0.50666103319758   -1.31698275031495
O          -0.24955652921644    0.97030307376806    0.54338308359010
O          -1.35137704433617   -2.47248067949296   -0.40989146749286
H          -2.23722202395885   -2.16631789105300   -0.62448860517187
H          -0.75614044472905   -1.88333186668795   -0.91057945046753
O           1.87658691350661   -1.20014444556295    0.68360463521669
H           1.28823018498618   -1.07378567091377   -0.08687618869556
H           1.30324427004199   -1.49768847128034    1.39677477178780
O          -3.26175648483972   -0.01694148644259    1.48208459880650
H          -2.93226737260654    0.08171072047732    0.56507825069881
H          -3.68560071362453    0.81313806222431    1.70245602727839
O           2.50362427857562    1.36260572179858    0.84756784241468
H           2.41478590460576    1.43683515860888   -0.70163478124698
H           1.61783010520483    1.65376401260359    1.10076436362448
H           2.46676329753551    0.37854757768838    0.94080724895728
O          -0.84741760971314   -1.15457202803555    1.83971206062656
H          -0.45464919580748    0.15750137270636    1.11558589016192
H          -1.74337407163383   -0.86354107216306    2.08756416701855
H          -1.00564192848251   -1.80704178612285    1.11287800339549
N           2.11656736950487    1.33736053894345   -1.73343830378972
H           1.08340742601213    1.68731889457897   -1.79151036772937
H           2.03248630989826    0.33980774296342   -1.94427280330471
H           2.73967667332535    1.81652320519564   -2.37531685386890
