    26
        -50.46547056  Gyration_radius:  2.52380241799 Dipole_moment: 4.998
 S          -0.40503577857164   -0.66074709278051    0.42029908466042
O           0.61930214906551    0.13776758650201   -0.45754747545435
O          -1.65847053148678    0.12309719646818    0.37523755707334
O          -0.56078352924171   -1.97692756172257   -0.14450573669140
O           0.15336959936579   -0.62500384273380    1.75838858912927
O          -2.49575957341763   -0.88603991732130   -1.95021010844770
H          -2.35211557097128   -0.46228662669447   -1.08370661639980
H          -2.36601494339696   -1.82526670239707   -1.79013494948346
O           2.31287794251711    0.72680730208243    2.42046806369782
H           1.54821099444388    0.14711084022271    2.19830707502178
H           3.09274759288468    0.17701162236471    2.33737372463963
O           0.57888635638854   -2.84617885984705   -2.38469255449813
H           0.13783397125198   -2.64714805125991   -1.53228076688957
H           1.41152258702142   -3.26505724210898   -2.16412746263284
O           1.34102390732079    2.52109173690674    0.70803838466453
H           0.02093544541296    2.31050546439703    1.49211387522599
H           1.93406979505765    2.06789532416736    1.34495091604206
H           1.20944840537622    1.86456244183382    0.00447690976528
O          -0.06502262042603   -0.27109048967097   -2.83866493520937
H          -1.03780444331452   -0.38440518858570   -2.72154001771883
H           0.36454008958585    0.01101556125750   -1.45601612051579
H           0.27377676874448   -1.18032311457178   -2.95987785104497
N          -0.82676344698432    1.88333803850414    2.00837198774088
H          -1.30520049631825    1.20718302068094    1.29947182918677
H          -1.46149378405687    2.58452164034025    2.37698516081679
H          -0.46408087626124    1.26856691395895    2.73882141732145
