    26
        -50.46547042  Gyration_radius:  2.52308422549 Dipole_moment: 4.996
 S           0.87273843945569   -0.04808924676881   -0.12462384426213
O           1.01781420947998   -0.21360343287668   -1.55826467167869
O           0.97105443505926    1.38414167548622    0.23073352263263
O          -0.61295429650858   -0.45133546075008    0.17190475290990
O           1.73810518987003   -0.87337391052916    0.67876902813519
O           0.93698593348472   -2.66940178563128    2.46954585845363
H           1.34503646856992   -2.06563835531612    1.81409554777314
H           0.85732776263163   -3.52022646303144    2.03686373603400
O          -0.96201491216964   -0.85430495564712   -3.17061415000189
H          -1.01890618644962   -1.80494400843794   -3.27228926951977
H          -0.18106162703444   -0.69016198651814   -2.59335165369878
O           1.35246908159631    0.96487771685665    2.83946778169874
H           1.26868083593098    1.27760180282989    1.91958479498986
H           2.03983488389937    0.29312945291974    2.81031203110124
O          -2.37577627716685    0.73853142034870   -1.57098090325625
H          -2.06774275568654    0.29680272801283   -0.76276743810253
H          -1.19713394970641    1.72301924563516   -1.77925223772977
H          -2.13832162169942    0.11103917580155   -2.28703004334018
O          -0.78523067310765   -0.60957865146654    2.67207596508421
H          -0.73643176415453   -0.51278246704216    1.20077742147901
H          -0.33941101115446   -1.46752912604329    2.81904010708986
H          -0.11485646519324    0.06460434079586    2.93456122137576
N          -0.21781233285707    2.16985332770878   -1.87340382049853
H           0.30279325268521    1.62651613759522   -2.56398007067984
H           0.29750219670901    1.97403631529182   -0.93315287469915
H          -0.25268883648560    3.15681651077857   -2.10802081128954
