    26
        -50.46547038  Gyration_radius:  2.52319111261 Dipole_moment: 4.973
 S           0.55580411701717   -0.46811556067213    0.50313165310386
O           1.47740440484195    0.68857229486665    0.50630772414683
O           1.05882417588764   -1.49982431959979   -0.38354267699816
O           0.22575037412286   -0.91009701155050    1.83399071661410
O          -0.75466278137654    0.04357084790203   -0.18895730925651
O          -2.16981651126105   -0.73759276163615    2.97658489473568
H          -2.64798215933816   -1.55153593363145    2.81486492303779
H          -1.25881222968178   -0.88413223510879    2.64607763953684
O          -0.02735681447305   -2.08931985796472   -2.70815880393155
H          -0.68684901580783   -2.77642537058682   -2.60644360420258
H           0.36122931616299   -1.95278654607574   -1.81350054451043
O           0.46192148950124    1.80755277920094    2.70736180738698
H           0.43385009844447    1.04666552893801    3.29455858160429
H           0.96538235976928    1.50489716062919    1.92895579723133
O          -0.38533619645558    0.54527053072269   -2.86797613218847
H          -0.40984296658182   -0.41270433955805   -3.07932723140121
H          -0.79797272090756    0.60048987964980   -1.99063115920675
H           1.10458376210124    0.61077251194166   -2.44570361589866
O          -1.89323061003566    1.50298413937410    1.50835900264379
H          -1.25332859585820    0.66771109800678    0.47366031084086
H          -2.26390931429930    0.81908394001614    2.10081281031885
H          -1.10714656295799    1.84883830537964    1.99336171486191
N           2.05607331053288    0.45748929636844   -1.95720884395555
H           2.80506170298204    1.00774970519297   -2.36538477832340
H           2.25548941725023   -0.54399835089433   -1.97990269022550
H           1.89487197043356    0.67488427908577   -0.90129020597060
