    26
        -50.46547038  Gyration_radius:  2.52310618882 Dipole_moment: 4.998
 S          -0.74462922271941    0.32795533765694   -0.34257557857330
O          -0.65132519238617    0.01776757544843   -1.75637284417342
O          -0.22586096384214    1.68951914795694   -0.08889509961727
O          -2.04168736374675    0.11622446149936    0.24769025477479
O           0.27715832196008   -0.64314358098456    0.34367755863765
O          -2.57308477721186   -1.53581389591648    2.26317025189715
H          -2.81774065530013   -2.38950235333980    1.90421958994939
H          -2.50219468787624   -0.92704992864004    1.49838040441730
O           1.07448479800810   -1.69017500218226   -2.77415545019629
H           0.36390574723142   -1.10392679479027   -2.42566903068702
H           0.69482559788122   -2.56854884822204   -2.81427353166540
O          -1.28877541423696    1.90697568406653    2.35065977692970
H          -0.87948216404784    1.99806280672412    1.47017216511202
H          -2.18892248456899    1.61774165603469    2.17570688210719
O           2.70891041892580   -0.66150246036630   -0.93957007214844
H           2.06945933759000   -0.78334086063462   -0.21876678014846
H           2.35689474191487   -1.22275698161443   -1.66341598052633
H           2.20642559208472    0.69815165030130   -1.48818084831399
O          -0.16537634105690   -0.46068609380232    2.80886864289700
H           0.14190734104069   -0.58826463914929    1.37136334433548
H          -0.47568109211058    0.47409784703912    2.86000161177299
H          -0.98300233283704   -0.99325663557709    2.87437054201241
N           1.59715615218647    1.51354862380990   -1.85066971839231
H           0.86999700603010    1.72218925825856   -1.06607664648690
H           1.03556317353987    1.15663595572226   -2.62555692476441
H           2.14107448354487    2.32909809068678   -2.11410252914840
