    26
        -50.47399130  Gyration_radius:  2.38942306247 Dipole_moment: 4.402
 S           0.02243220617301   -1.33289782409024    0.53321978496826
O          -0.98734553066577   -0.26271013778172    0.52905322377201
O          -0.08558836315458   -2.06495278750860    1.89285954997849
O          -0.17835915252735   -2.27812306124111   -0.52847870829476
O           1.36789342512579   -0.72645108999203    0.47399300523930
O           1.60889732327391    1.38340811930862    1.97495357108883
H           2.47481511169909    1.40265681795146    2.38479787244256
H           1.58011511360150    0.56404881007025    1.41789812366727
O          -2.64721548149838   -0.39504915231890   -1.57575931518727
H          -2.10721444790956   -0.32191010181463   -0.76377538262039
H          -3.20775704793245   -1.16277750622122   -1.45104503612875
O          -0.09055983192369    2.18817209798828   -0.13268981251768
H          -0.61380729450132    1.39798745132390    0.10623793479031
H           0.50627288468665    2.31806294046413    0.61723495955667
O          -0.41726134877599   -1.06437787359395   -2.88504550577395
H          -0.27436487031330   -1.72754761721613   -2.17820928759922
H          -1.31703089018700   -0.72625358329783   -2.68761575489780
H           0.55753260623449    0.00336824997627   -2.37603056772748
O          -0.54966816273331    0.16725427838929    3.14246549705649
H          -1.12565360345968    0.30651814464720    2.37714982914928
H          -0.22252558665500   -1.33103045422856    2.54573877903621
H           0.22545924991400    0.73514766111347    2.97936717100283
N           1.23162977138675    0.60578523309462   -1.78116075631196
H           1.48988888882167    0.00154925943618   -0.95788718392128
H           0.71562947237009    1.41883812302480   -1.34575249619075
H           2.04378555892841    0.90128402252227   -2.31151950457089
