    26
        -50.46379209  Gyration_radius:  2.5274501857 Dipole_moment: 3.676
 S          -0.69334629532030    0.21670943106219   -0.21490902737651
O           0.17717516147873   -0.99602073341810   -0.25199406749705
O          -0.95799212903594    0.67759862011575   -1.55435806589821
O          -1.85589567110521   -0.00679991079485    0.60595865703410
O           0.20178183673233    1.31646553815254    0.44257994639307
O          -0.33539213380611   -1.73491438906735    2.27177755145404
H          -1.29434059992436   -1.67599533264938    2.31039958324248
H          -0.11586085051781   -1.61916960794103    1.32947647116245
O           0.14151603004275   -1.96779104476329   -2.78775307505418
H          -0.77040448690569   -2.08697614153991   -3.05831541691101
H           0.10830286665574   -1.73376382752825   -1.84084396939242
O          -2.36015214714436    1.32042558935690    2.85493521229625
H          -2.30509858302223    0.80573586898457    2.02259810008342
H          -2.79029968941562    2.14609426735076    2.62909653687646
O           0.96769507914911    0.53112715364983   -3.32167320947844
H           0.15837696974072    0.80165440833727   -2.82748849740090
H           1.84732570991358    0.47803012924725   -2.12452142783388
H           0.80548172732003   -0.42221059105509   -3.47854868043339
O           0.27029249539052    0.78136978469546    2.90193183750898
H           0.25417451150842    1.13763520820141    1.45878845732652
H          -0.62038548615605    1.09449445020030    3.16041014684997
H           0.18497266670587   -0.19995318740614    2.86437653585665
N           2.21597494836213    0.32743437516214   -1.09470449830450
H           2.10271634943893    1.19125746664109   -0.56263582292765
H           3.16564663485642   -0.02832321262573   -1.05152720850691
H           1.49773509505906   -0.35411431237407   -0.68305606906618
