    26
        -50.46824844  Gyration_radius:  2.38803430565 Dipole_moment: 4.311
 S           1.18340807039780    0.27495843575162   -0.44324954453369
O           1.60266453522028    1.00392162333582   -1.63275262047325
O           2.18588155803436    0.15218870882472    0.58307978260970
O          -0.00493446415980    1.13169938786196    0.13362207654614
O           0.58290821125224   -1.01429858901975   -0.81629125562806
O           0.94308938907864   -2.19499697656707    1.55023448460526
H           1.80272411580643   -1.86732497060808    1.82977167444962
H           0.87852095998073   -1.95217355877723    0.60744544000589
O          -2.04279578145086   -1.09942338386388   -0.21822817105484
H          -2.08568001359378   -0.99804792721052    0.73763044637440
H          -1.09289543206265   -1.20167238942935   -0.42611556178031
O           1.59292813074212    1.06790166503165    3.02546407379675
H           1.92204981736136    0.74284252145367    2.16225066166777
H           1.90268498311075    1.97074247909232    3.10453057250526
O          -2.26070849099926    1.19072862907486   -1.51990817066040
H          -1.69266144338629    1.68852827892980   -0.91735063351421
H          -1.22104220454704    0.65574031642317   -2.54244770886468
H          -2.43139241506888    0.34243318704699   -1.04051206258835
O          -0.65400886030390   -0.18562956523462    2.23062347895636
H          -0.17408470273935   -1.04083016125156    2.09873245295639
H          -0.07544982534568    0.31233262787592    2.83574782469351
H          -0.31866706477614    0.65464581400150    0.97258061068472
N          -0.36585428000638    0.20116781653624   -3.01735947902402
H          -0.31526614564486   -0.77421006020525   -2.71331674280968
H           0.51756793240909    0.64896500442117   -2.55594641232733
H          -0.37898657931120    0.28981109650605   -4.02823523659989
