    26
        -50.46972952  Gyration_radius:  2.4307874701 Dipole_moment: 5.129
 S          -0.14630927330813    1.51896974943630    0.37288180555677
O          -0.78054482654703    0.07243365352782    0.53496998065383
O          -0.78667941955488    2.14421671835166   -0.75970712641111
O          -0.36368017800804    2.14741047878686    1.64940571955879
O           1.28406457978258    1.25982241406938    0.11094543653893
O          -2.44448099508207    0.68748003718439   -2.22491409095792
H          -1.87086599088311    1.30187406817954   -1.71545059953721
H          -3.34474388278099    0.96461662393266   -2.05353218414308
O           0.55498312834952   -2.75121989870432    0.12222926180088
H          -0.24963490025561   -3.11309867862862    0.49841753234501
H           0.28172074017899   -2.28893199993818   -0.69033207290431
O           1.11393091033250    0.87382889020403   -2.49314844078665
H           0.49944360814661    1.56339980311415   -2.76082052676432
H           1.33988716197757    1.09346502878495   -1.56567326188127
O          -0.48714103212334   -1.08507857872141   -1.78685402728246
H          -0.70454022305079   -0.37825652488986   -0.34945009286163
H          -1.32807364322972   -0.74676618004367   -2.14254075277887
H           0.19707716749237   -0.48005247989635   -2.17643424750407
O          -0.05144072548723    0.20018294096040    3.32918050016185
H           1.04217410452579   -0.52671261453110    2.40349549730443
H          -0.15396742655939    1.03178400423684    2.79464242438505
H          -0.91980834118377   -0.20727277641039    3.30918666035750
N           1.69670365802642   -0.78574483234755    1.61003024196010
H           2.63915203499763   -0.96149591490685    1.94170088484429
H           1.66456166518364    0.06939627517217    0.96251216614974
H           1.31821206906549   -1.60425020695649    1.07925931219509
