    26
        -50.46147052  Gyration_radius:  2.59185307119 Dipole_moment: 4.219
 S          -0.26681751950806   -0.69622705121187    0.01900348559205
O          -0.84033186276818   -1.34847799480279    1.17136177609985
O          -1.32830549716091    0.29559297006640   -0.58414145277375
O           0.91268365460775    0.10319162972391    0.31962375775196
O           0.02048194419441   -1.61716515456096   -1.09436852088460
O           2.65434752712024   -1.80803393500985   -1.66002931530129
H           1.70494177437823   -1.87538263639980   -1.43503332057051
H           3.12870611059538   -2.17781169524655   -0.91398199603822
O          -1.68754240789508    1.89650768478690    3.07847477342359
H          -0.85379835091283    1.36711594863106    3.09182102274011
H          -1.97336206303092    1.96788694938695    3.99045010772237
O           0.38693057851881    0.22799224477918    2.95892083594341
H          -0.09357826610039   -0.54703244204057    2.62340264718049
H           0.90841449424345    0.49086841688276    2.18656330025295
O           2.30142057151353    0.85375384689909   -1.77615507803892
H           2.75245227984667   -0.00966266568438   -1.87505489159598
H           1.06195704803568    0.60807987470599   -2.57103531975806
H           1.87709665045774    0.77345621384490   -0.88935877643065
O          -2.96134085917649    0.29412627297902    1.35824600693584
H          -2.61934812097681    0.98061556024355    1.97770399798906
H          -2.05300956545625    0.39430284285243    0.11664841149320
H          -2.51513716943192   -0.52935871025725    1.60835424873118
N           0.09179474052768    0.20473566221855   -2.90170407751084
H          -0.01402357200370   -0.66615082919629   -2.27663506558110
H           0.06665356803269   -0.01859621539139   -3.89142360647460
H          -0.66128569768145    0.83567322179392   -2.63165295088325
