    26
        -50.46379209  Gyration_radius:  2.52726048397 Dipole_moment: 3.681
 S           0.33393603648374   -0.63274716788156   -0.24954972478057
O           0.58363966254465   -0.85110657858049   -1.65190851478792
O           0.94593203242158   -1.58152254612573    0.64520009806508
O           0.69621047602775    0.76679484482227    0.12439929004341
O          -1.21902128995077   -0.68927257236231   -0.08164724637356
O          -0.42210018637661   -3.18576447658422    2.26641552540873
H          -0.69102936490709   -3.95967834545736    1.76988592708728
H           0.18181330727746   -2.68293431369375    1.68063246162605
O           2.22397158156980    1.79137246962673   -1.87332054328466
H           1.77543448666225    1.44661496330329   -1.07801099915500
H           2.95145421848608    1.19041404422030   -2.04253390851283
O           0.74869016614860    0.30261336902431    2.76251635445880
H           0.82847714446665    0.59088186538828    1.83516843011308
H           1.27856808754205   -0.49789723044739    2.81779252724741
O           0.07112235707458    1.09918107194360   -3.32151143863051
H           0.91270649542904    1.55407648940600   -3.11043429288491
H           0.21246607734860    0.20632925694040   -2.92743337283665
H          -0.80402796111891    1.59520654680698   -2.22720882541610
O          -1.64813573898208   -0.80029954309356    2.39672978512832
H          -0.87109373322554   -0.29107495428576    2.72632963607835
H          -1.44164523929028   -0.74070535849503    0.92597435583072
H          -1.41386854348514   -1.73671875406496    2.55961424908538
N          -1.24406417053465    1.77559943280713   -1.23071081007474
H          -1.97079347865567    1.08213351659752   -1.04872640719390
H          -1.57835674991342    2.72511885870398   -1.10034317021473
H          -0.44028566304041    1.52338510148249   -0.56731939603091
