    26
        -50.46147043  Gyration_radius:  2.59123663402 Dipole_moment: 4.220
 S           0.67241228184319   -0.15842389901083    0.28365434142980
O           1.89196717511693   -0.31218994058022   -0.47228575416639
O          -0.16442395647480    0.94538827243614   -0.16517578475582
O          -0.19369891113210   -1.46144907543417    0.12106350851016
O           0.89044556788654   -0.06517321082111    1.73761176968604
O           0.16801364817424   -1.02750213622997   -3.84820907159470
H           0.42895317852452   -0.16027167247911   -3.45420962612680
H           0.58273564751227   -1.06437322488047   -4.71138328717664
O           0.15572200251116    2.32172069759333    2.76488555775337
H           0.54677100494128    1.48457385375543    2.44407959277820
H           0.69221081907774    3.02281966664544    2.39204631087881
O           1.04812795007340    1.13556036346932   -2.56429029702894
H           0.34675735304830    1.39463629417129   -1.94921593652762
H           1.67692868068343    0.68626007282088   -1.97513502378174
O           1.08244285935619   -2.49957552361825   -1.81157258533760
H           0.68818956137385   -2.09555528296515   -2.61977086773345
H           1.79365110657859   -1.89964833861026   -1.53948823541208
H           0.21465322315301   -1.97815066287813   -0.64829339801473
O          -2.09559746019076    1.60624460648006    1.48367361906284
H          -1.94038053442602    0.24178057812648    2.06888499932161
H          -1.50935449347724    2.12266489090006    2.07398414986470
H          -1.52258805373923    1.45085886293960    0.69602200320551
N          -1.50628989293651   -0.72040444580201    2.38366472929807
H          -0.45080932155981   -0.53989855385497    2.26590499614066
H          -1.74172705170065   -1.44870475282887    1.71114018363967
H          -1.75511240419132   -0.98118746935394    3.33241409611597
