    26
        -50.46147058  Gyration_radius:  2.59177811608 Dipole_moment: 4.222
 S          -0.59379036659252   -0.31830629799997   -0.32159882503879
O          -1.01136055179713   -1.66817295615102    0.09545627560875
O          -1.02616300002627    0.59318417694145    0.88522493128658
O           0.85916239878067   -0.24592337575897   -0.38667237087020
O          -1.25636779711740    0.14542304878164   -1.51666719894035
O           0.06481361343492    3.76532486337596   -1.31816687533635
H           0.47252906777591    2.97737012053764   -1.75222612974486
H          -0.00251973749633    4.43901231459185   -1.99644989508972
O           0.86830142165589    1.48921838161951   -2.44768265999191
H           0.00352291293252    1.04662788597489   -2.46974913744900
H           1.33224098085855    0.98895885021704   -1.76062402266919
O           0.99191635665772   -3.47624120462056   -0.00598322886360
H           1.29525399601593   -3.58592505071633   -0.90841435309028
H           0.19964431484908   -2.90487919167137   -0.05637275127582
O          -2.10340550449727    2.46408813285009   -0.44887664709162
H          -1.47356020106386    1.40610155381022    0.47935442591853
H          -1.36053172004283    3.06781274948137   -0.68470617393402
H          -2.14131797516976    1.80610715408167   -1.15980124794215
O           2.11404183585791   -1.55960954033162    1.50662111560835
H           0.83808106870735   -1.48745574043302    2.27780235303748
H           2.00964858959186   -2.42935124203612    1.06893720741686
H           1.84626460288690   -0.92940716513353    0.79669132073114
N          -0.23233217183707   -1.42170245898856    2.52932257387050
H          -0.51501905044155   -2.07520732714998    3.25253440537779
H          -0.69898147595182   -1.62585450051025    1.58010110955784
H          -0.48007160799414   -0.46119318073150    2.76194582890711
