    26
        -50.46147058  Gyration_radius:  2.59172926701 Dipole_moment: 4.224
 S           0.68627011202439    0.05642352391476   -0.28670436158366
O           0.68378282963522   -0.85797296362488    0.99310945281283
O           1.10141970849273   -0.85678878095159   -1.36557052692096
O          -0.69392676530462    0.47293967255511   -0.49199176924014
O           1.60233549072302    1.15134991835288   -0.07595325782085
O          -0.30624365678634    2.92654156405861    0.55097637338112
H           0.57021920291385    2.60686587406711    0.27918115274028
H          -0.88938221407232    2.24038026707922    0.19491167058951
O          -0.06286605145281    2.43570394787499    3.15916235858588
H           0.12068959778355    3.25993666887146    3.61238743380578
H          -0.25930886356189    2.67504301134857    2.22129525855609
O          -0.61359406678256   -0.88378262162680   -3.45109333892670
H          -0.64520975743199   -0.02094539140528   -3.86693252888895
H           0.10321419645695   -0.83615005649503   -2.78728624264451
O           1.90146439104804    0.72233280797028    2.56170494575413
H           1.19685638865942    1.30334933654991    2.93296988697005
H           1.14586037999671   -0.32653451607503    1.72107571172633
H           2.19321524784939    1.15465970294020    1.74447329690188
O          -2.28525180375558   -1.39943880017514   -1.41145291482867
H          -1.28235285348821   -2.37787400893930   -0.89819762010485
H          -1.89552116370920   -0.60637949657968   -0.97303514152881
H          -1.98223703949539   -1.30076570638937   -2.33734303004034
N          -0.33297234671332   -2.83413227137501   -0.57508474997258
H          -0.25217138286952   -2.79593598814588    0.43983118871539
H           0.39272884256855   -2.13527669362066   -0.95615466753674
H          -0.19701841271975   -3.77354904018811   -0.93427855050039
