    26
        -50.46379213  Gyration_radius:  2.52748103623 Dipole_moment: 3.684
 S           0.12750300069734   -0.63610855122239   -0.39002593601268
O           0.67520509445381   -1.81760512404411    0.22602496009262
O          -0.93183266286638   -0.02685769134471    0.46807117015274
O           1.23500245668084    0.46322763569419   -0.47801216517194
O          -0.36172201556257   -0.80676102709507   -1.73467328645433
O          -3.29983087969185   -0.26263233884017   -0.84046324070162
H          -2.50408693087913   -0.24592146628135   -0.27561261740931
H          -3.42483295163648   -1.18072156347795   -1.08645182377298
O           3.20485632152080   -2.04018115662927    1.01658263395162
H           3.73668968926475   -2.29589173480001    0.26192773569310
H           2.27148283225497   -2.09148770778264    0.72172842924737
O           0.24258004238505   -0.67139304773595    2.78840226473430
H          -0.31916945955838   -0.43511382155919    2.02802924567888
H           0.45884598264896   -1.59891598716999    2.65577115814063
O          -1.91733391801234    1.04596072762375   -2.73467895587665
H          -1.27001457343748    0.30859066102542   -2.63642657598707
H          -2.70308530144143    0.69548689427070   -2.26612244114905
H          -1.31288444848903    1.89997970528064   -1.67913129558949
O           2.42980943243060    0.42796497014394    1.73799140387643
H           2.96787437938979   -0.38098836083625    1.61883237992983
H           1.75650350451660    0.48062292465261    0.41368364125147
H           1.68937550888399    0.14715276382945    2.32505347646359
N          -0.81142513257263    2.23419282129330   -0.75381661290519
H           0.19428670582411    2.29955972578519   -0.91591101768218
H          -0.93869068111764    1.39496346376782   -0.09879222251607
H          -1.19510599568830    3.09287727545208   -0.37198029797966
