    26
        -50.46147060  Gyration_radius:  2.59190297227 Dipole_moment: 4.220
 S          -0.04116035304598    0.53327584655562    0.52028087063005
O           1.04401180464900    0.67291551350577    1.50682702362945
O           0.59137572957000    1.08888665275338   -0.80835684710475
O          -0.31693898347737   -0.87651922736617    0.28140955012004
O          -1.21293844899080    1.31240692725305    0.83998086043285
O          -3.01989322884200    0.69606667035836   -2.51372060473535
H          -3.04935839698500    0.16096390661629   -1.68403146054844
H          -3.92937177073598    0.91283182506531   -2.72424838637681
O           1.60849621901777   -1.63049102065464    2.79804592547298
H           1.37953003326564   -0.74348876062910    2.45521728369850
H           0.85306265454910   -1.91654457445548    3.31372950708087
O          -2.95113157276678   -0.48590712408833   -0.12611318435970
H          -2.64094943464711    0.27967973303506    0.38548135229086
H          -2.17026032726822   -1.05848370367272   -0.12400656950801
O          -1.35068728590974    2.54690855253297   -1.54504466585056
H          -1.62533967900062    2.48281114581789   -0.61750206413848
H          -0.10620572493716    1.69613605388377   -1.22121700584714
H          -1.94864832085989    1.94088951703183   -2.04212865545281
O           1.80259970922521   -2.42267211439117    0.23749539736758
H           2.58872358706872   -1.18395656230918   -0.03659130090388
H           1.87587807947552   -2.46923563813875    1.21286364232443
H           0.91329314062797   -2.01583418476267    0.10899863454968
N           2.90649562224785   -0.12958567963084   -0.06758358743512
H           2.65568497944246    0.28642641944499   -0.96323044520436
H           3.88881814438209   -0.00018176463050    0.15224705047549
H           2.25491383393946    0.32270158088378    0.66119768937057
