    26
        -50.46147054  Gyration_radius:  2.59170099775 Dipole_moment: 4.221
 S          -0.35045208123183    0.26182633835644   -0.60377880721526
O          -1.54053542751113    1.11522025940219   -0.44285721751612
O           0.64804086667754    0.60733870199851    0.39827143795428
O          -0.87045690711411   -1.17465272060380   -0.22936717189822
O           0.16009263417796    0.23574359203535   -1.95322319169338
O          -1.11642601693115    3.22604323854925    1.18685542067438
H          -0.45116092245255    3.80576882849800    0.81299672113610
H          -1.30386933729803    2.55459967054787    0.50077633237674
O           2.70901569420610   -2.59742482674222   -1.35414647412312
H           2.82477028115989   -1.62294251349105   -1.24227759817751
H           3.40153894932122   -2.88167061989717   -1.95248450605187
O           2.73286669944630    0.06406784851681   -1.21948150281107
H           2.37401186281150    0.29961689633347   -0.35159199082177
H           1.97297631266081    0.22702818674773   -1.80274534923314
O           0.16604086443196   -2.44491874236650   -2.16652904740789
H          -0.50851067482746   -1.80019213915631   -0.93892242653386
H           0.22523831178900   -1.57120974359958   -2.58238106598752
H           1.08070285196972   -2.66007950771348   -1.86809865344535
O          -0.32234642778345    1.19965949931241    2.76319873131150
H          -1.54764988560144    0.45605113913349    2.34651526469367
H           0.23995659879173    0.91318621678063    2.00518472362103
H          -0.57125121119422    2.11221373267213    2.50991840214322
N          -2.34176892266395    0.00649226417742    1.72952018297357
H          -2.14990635364727   -0.98232706322579    1.57614983223506
H          -2.18713357219813    0.48858703229133    0.77863819857242
H          -3.27378418702563    0.16197446139496    2.09985972528954
