    26
        -50.46147053  Gyration_radius:  2.59194305249 Dipole_moment: 4.225
 S          -0.36807764970578    0.19045416210220   -0.62014166796314
O          -0.18084000656533   -0.39339253238080   -1.92638427230429
O          -0.35120058050763   -0.77806220959140    0.46718007525847
O           0.81213525216776    1.19069310849960   -0.33634477707769
O          -1.57094866859447    1.03528236834524   -0.52191283219571
O          -3.40588100408173    0.07266455594738    1.20961649102466
H          -3.73409292097551   -0.77598120633627    0.90880819974782
H          -2.84089599491832    0.41352593507079    0.48762088356331
O           3.34805538757647   -1.79101957749754   -1.22973097347697
H           3.84438861728538   -2.39615955815098   -1.78275105518915
H           2.46963484958208   -2.21563723331813   -1.07625322854135
O           0.84938742557329   -2.69002414462253   -1.00308961259129
H           0.43700729309716   -2.08013096166008   -1.63725147070116
H           0.51278607127409   -2.35877904568180   -0.15778821951459
O           2.34508074179686    0.47756968544927   -2.22888467436957
H           1.53928019407609    0.09508454493447   -2.60869163141928
H           1.51878923827759    0.99963583060499   -1.03631193260447
H           2.85681049496467   -0.28417842772464   -1.86851524631051
O          -1.21836536027330    0.13456781276543    2.76934571533202
H          -2.16335638478071    0.04194237021669    2.53027385039791
H          -0.76519779319720   -0.36124709253156    2.04700378485833
H          -0.93349335887726    1.49839614405295    2.23384304678429
N          -0.78214541436308    2.34233185954146    1.54216418017988
H           0.21233055530435    2.48194703669403    1.37039372463074
H          -1.24134048720229    3.19536547482511    1.84453642551191
H          -1.18985049693852    1.95515110046627    0.62326524698813
