    26
        -50.46934683  Gyration_radius:  2.40550324918 Dipole_moment: 4.747
 S          -0.48704463911869    1.52182643694010    0.03770665923972
O           0.27814871236505    0.62830078340401    0.91717796688261
O          -1.26716666854092    2.46308313352335    0.79245126088626
O           0.55957161565246    2.29094836012281   -0.82807374029086
O          -1.29923795885331    0.72038411313352   -0.89558665221470
O           2.76831344698731    0.54013927541357    0.06836029016359
H           1.89698349393156    0.62749212875249    0.51471521439792
H           2.89436641848637    1.36706727341609   -0.40270808017979
O           0.26138268405843   -2.03442951412549    0.79340496595531
H           0.41437426188905   -1.09195835573068    1.00909062291288
H           0.76572405628025   -2.16504714346788   -0.02399083596794
O           1.98441613314113   -1.54342190726956   -1.36963933006476
H           2.37662703725728   -0.82692764546889   -0.80902625133815
H           2.72140545128910   -2.04200889127671   -1.72529507114811
O           0.63887324081137    0.47486631806676   -2.67896350776637
H          -0.26956448863149    0.37571443843825   -2.34872825804729
H           0.71060473988153    1.70913881771085   -1.62369620033069
H           1.12223308368994   -0.30675173377975   -2.35229533567580
O          -2.07663296357399    0.70049797799415    2.58006624692405
H          -2.27743909363525   -0.53267829777341    1.53565114859566
H          -1.25417504052879    0.57353775840121    3.06038017723046
H          -1.89622730715243    1.46354923187268    1.98294724004657
N          -2.20311696528069   -1.12425431516512    0.66122098207081
H          -3.04977604348307   -1.64833217976175    0.47160987614963
H          -1.33849956819801   -1.72959571616194    0.73133058310349
H          -1.97414364872260   -0.41114033720908   -0.09810996152839
