    26
        -50.46934681  Gyration_radius:  2.40573445113 Dipole_moment: 4.748
 S          -1.01293238379785    0.78779283967818    0.95554186110950
O          -0.50648281756280   -0.58620680249638    0.84180806394663
O          -2.35404260399627    0.83101086147623    0.15806625414603
O          -1.25932061121522    1.14710864197346    2.32461604818974
O          -0.08815909475612    1.71314956369033    0.27615314550202
O           1.70661073950797   -1.31011050253037   -0.45616225894182
H           1.40851878369337   -1.19037361028320   -1.37070493437543
H           0.87762033298725   -1.26749053420374    0.06258073486045
O           0.01661708551373   -1.01190200869310   -2.67927583843451
H          -0.01399353487227   -1.46029697811875   -3.52559543908465
H          -0.68625853106380   -1.42697227287844   -2.11793939420620
O          -1.87749172984189   -1.84198465931855   -1.02167359861149
H          -1.41854937805687   -1.47984437661453   -0.23152551709573
H          -2.71789174933166   -1.37947354652404   -1.05943431791805
O          -1.20526986069546    1.39024414857471   -2.10001203236106
H          -2.08765424896169    1.04849041049993   -0.77779268577462
H          -0.59246597571264    1.79573032580197   -1.46425581094768
H          -0.74396330941542    0.60144593017746   -2.44098979968467
O           0.95335928217568    0.04746376398939    3.24738710412513
H           0.71824386225980   -0.87983748772197    3.15739449551005
H           1.90163894800331    0.47859921181813    1.99551778018845
H           0.11531225337047    0.53175798936668    3.06162892849251
N           2.20098239001822    0.80134038977700    1.03306071071827
H           2.27060560217095   -0.04126050624427    0.39742562147026
H           3.04463543956985    1.36279653313452    1.05473888994314
H           1.35033111000049    1.33882268568586    0.67944199924078
