    26
        -50.46934676  Gyration_radius:  2.40580500343 Dipole_moment: 4.749
 S          -0.61967097978886    0.76216732292285    1.26301017231706
O          -1.12959075301487    1.32030063092163   -0.00251848916327
O           0.56178284409184   -0.06807157174394    0.99437694316540
O          -0.34242381500310    1.77043689743848    2.24827371187394
O          -1.72260075263095   -0.20154390694232    1.80266635262225
O          -0.14765022265193   -2.60143093588311    1.08136295644518
H           0.21116483346441   -1.68998257135984    1.16309856773438
H          -0.92576739605946   -2.61767041625280    1.64340151747776
O          -0.56248161136832   -2.35801428454568   -1.52494048803441
H          -0.66502155359599   -3.20500384362606   -1.96110322453305
H          -0.35888677683737   -2.55569438786485   -0.57579275896024
O           1.58845250005245   -0.55582826043256   -1.41695767847344
H           1.38251624176955   -0.51076617317093   -0.46110727685861
H           0.90948031244990   -1.15210464783041   -1.76763863392526
O           2.01817207286668    2.40858613680322    1.25989645698760
H           1.59661128481487    2.27601153172218   -0.30767763426179
H           1.15442706295999    2.31517230102415    1.72532910636012
H           2.51488906940826    1.62781271075384    1.51881919131086
O          -2.61799402039719   -0.79461354860351   -0.55927730014334
H          -2.19111043110508   -0.53498884822237    0.98822125985203
H          -2.28545012827368    0.10778300801358   -0.69806412419961
H          -1.98522557856876   -1.37952816334767   -1.01605165118888
N           1.05794689952828    2.00984931325521   -1.17889715305595
H           1.10247835576277    2.72278317429466   -1.89806897977131
H           0.06917492938314    1.84524147744654   -0.81459080775218
H           1.38677760275595    1.05909706521663   -1.50577004581996
