    26
        -50.46934679  Gyration_radius:  2.40570040342 Dipole_moment: 4.747
 S          -1.23777073725865    0.92408441835927   -0.41689901910616
O          -2.09063238168513    1.27688126561821   -1.51799723613460
O          -1.23517901818356    2.08216163755247    0.62969740986039
O          -1.68840433005458   -0.28607612283213    0.29403578114253
O           0.15556874050155    0.75148108649389   -0.84837052262960
O           1.72106206786494    2.09233064552857    0.78880220555641
H           1.16047094654135    2.78182688066538    1.15206382650313
H           1.19240889079283    1.68207430242851    0.06884837788986
O           1.66523594907121   -1.39045015496136   -0.35907369013322
H           1.82265587415289   -1.26887725550461    0.58957190554530
H           1.29839672822733   -0.52847215861947   -0.64300892555454
O           1.87142640039016   -0.16976213210110    2.16166305757271
H           2.57450558384825   -0.15794024651701    2.81266762459851
H           1.93294469438413    0.68742974035350    1.66884048265145
O          -0.75683125132121    0.51096239562695    2.63812792600764
H          -1.06073313883181    1.63565863067522    1.50397675849765
H          -1.24407274937005   -0.08014854510975    2.04038104517214
H           0.16961984026958    0.20759616176126    2.60790434637566
O          -1.01049145760123   -0.44445110533736   -3.19941179221991
H          -1.53915284005076    0.21562988296160   -2.69322757978929
H          -0.16709130265299   -0.00955074331129   -3.35033109014849
H          -0.80306085710716   -1.64334908249874   -2.11707669618000
N          -0.71104383505908   -2.15094454611357   -1.19293183994183
H          -1.23192803540168   -1.51640932730560   -0.51201913681187
H           0.29872794697361   -2.10981788520957   -0.88073511693457
H          -1.08663172843843   -3.09186773260271   -1.22549811180631
