    26
        -50.46843452  Gyration_radius:  2.53647065564 Dipole_moment: 4.841
 S          -0.84461794066993   -0.16961203891069    0.34086183309443
O          -0.46933671464470   -1.57305508921034    0.17516711484301
O           0.34946660239092    0.69145046164260    0.18454754688521
O          -1.87287927767408    0.22309956015354   -0.60020704173027
O          -1.38284647223395    0.04912462948754    1.75761243584324
O           1.51145421439124   -2.38783128928318    1.70221770081852
H           1.31643462696243   -3.29954187830259    1.92585290783494
H           0.82353077696290   -2.11501698523637    1.05523471796837
O          -0.69932084158530   -1.67518911060924   -2.41971318037351
H          -1.61641813391853   -1.40803550069653   -2.53030432918114
H          -0.60029109123507   -1.80542012939722   -1.44621702204598
O           1.60040810317804    1.78173272476212    2.27756573909639
H           1.05766649951353    2.53781866265653    2.50733461217496
H           1.22616864286239    1.41734928659696    1.44950311788925
O          -1.61710973902904    2.03675512695397   -2.48118011678566
H          -0.09909216230869    1.31502968773776   -2.65970859425101
H          -1.85578568965304    1.37977620325520   -1.78352877167439
H          -1.82408659844984    2.89671036018291   -2.11301867882536
O           0.54502880450475   -0.47533801984472    3.30437126781289
H           1.01505551992897   -1.20969337377139    2.85026071083354
H           1.09054037793404    0.32228661181484    3.14405419421501
H          -0.63997453673447   -0.19383635052988    2.43059146193460
N           0.61362727968013    0.60495168907012   -2.37568546465103
H           0.66714389950887    0.67489182536779   -1.30791498597046
H           1.51277935017065    0.73611129756145   -2.82553545225846
H           0.19245451013066   -0.35451837144262   -2.56216174350198
