    26
        -50.46843394  Gyration_radius:  2.53513395241 Dipole_moment: 4.824
 S          -0.73505544396728   -0.56428429034637    0.01676827882042
O          -1.90623672953361   -0.60590234943704    1.00237213401138
O          -1.25740830649312   -0.77599699323607   -1.31722155967578
O          -0.11919946735249    0.77790663957213    0.11948561129387
O           0.24331664803351   -1.58792006317726    0.38163320430824
O           1.41804993536240   -1.22529506361303    2.70690615553825
H           1.56733225278638   -2.10067675848543    3.06841725370415
H           1.06855234088242   -1.36384692575816    1.79861834924296
O           1.32021608658049   -1.87543822304465   -1.97507721993741
H           0.99921708881558   -1.90778173364651   -1.04216582252693
H           0.54815752838302   -2.10898775831282   -2.49864470961723
O          -0.63493134690290    2.41395149300950    2.16710461719973
H          -0.36874646444854    1.88698038737447    1.38611731995057
H          -1.49562117029735    2.78265692858736    1.96118409535841
O          -0.96621703477372    0.86274789968746   -3.34780487799651
H           0.60039167690733    1.00046430499666   -2.72739901861800
H          -1.19135568763422    0.19615552476240   -2.65475182474455
H          -1.66981419608580    1.51263583070728   -3.32441307732949
O          -0.91491315452221   -0.03528781928776    3.25534346159231
H          -0.01785901985082   -0.43634973680141    3.22483027381707
H          -0.77672740419941    0.92478110577725    3.11863778469905
H          -1.54224403635593   -0.42052671118347    1.94944146192585
N           1.32390605212638    0.75572507129156   -2.01360269336686
H           1.50226592511701   -0.29053774376891   -2.09391703906660
H           0.83467162265439    0.87651484999532   -1.06825923250385
H           2.17025231477441    1.30831215434825   -2.09360291593575
