    26
        -50.46489349  Gyration_radius:  2.55387641143 Dipole_moment: 4.633
 S           0.69653933269241    0.30354167774256   -0.32662524932349
O           1.67087473131245    0.75719648713782    0.64524903227666
O           0.47807239968452   -1.15226335083355   -0.16584433312417
O          -0.57373966915123    1.01646796049215   -0.18890912240582
O           1.26031048014746    0.54649455429279   -1.72678843848245
O           0.29015118180029   -2.80653757827915   -2.25638645949469
H           1.19848170076684   -3.05121633857151   -2.44124916729397
H           0.31045672048882   -2.28648815376951   -1.42733009765771
O           1.09246238746896    2.42191446034309    2.60740781244366
H           1.21483760037921    3.32685815083159    2.31759707608766
H           1.39831862660718    1.85785127363724    1.86090459361255
O          -2.46654165453527    0.33805429604750   -1.89483276133094
H          -2.91992727677815    1.15101815288253   -2.12408119351777
H          -1.82294558992788    0.57424254186815   -1.19097967404405
O          -1.15232728877696    1.00107213532653    2.37715368856363
H          -0.30456431971943   -0.21735942202253    2.51373565297973
H          -0.51190911903442    1.68465224387501    2.66837670660811
H          -1.13242195111760    1.06681795196813    1.39426292303534
O          -0.37827120418966   -0.44980495304866   -3.36092957707057
H          -0.24762821880253   -1.40169649688972   -3.16467783806849
H          -1.25020174465050   -0.21822640622516   -2.96992023308318
H           0.60111484647877    0.17798132710010   -2.43730974489192
N           0.45581580297008   -1.00472852012872    2.39389023274298
H           0.45628938478260   -1.21494324631422    1.33522665572993
H           0.27293032263450   -1.82829836749461    2.95851809009562
H           1.36382254845587   -0.59260037995429    2.60354142560845
