    26
        -50.46843436  Gyration_radius:  2.53591705961 Dipole_moment: 4.833
 S          -0.47901670828109   -0.69547287123247    0.37790587022404
O          -0.51783968170713   -1.21432754377673   -0.98857160865176
O          -0.00571005127583    0.70716744382632    0.36933045027689
O          -1.89421355216686   -0.69624651050291    0.96263736939039
O           0.36480166931707   -1.50442013037684    1.23280992956245
O          -1.68243267023518    2.76419865353452    0.66949180840421
H          -0.99076099450034    2.08436304961144    0.53528037332162
H          -1.84892281750032    2.79490386757288    1.61310900999277
O          -1.87001092150082    0.25084456460489   -2.70449028801288
H          -2.27719184316840   -0.36498194412136   -3.31623942993185
H          -1.28827815154823   -0.28908365344350   -2.12449877901476
O           1.95786431659241   -2.02242058361837   -1.10793647907367
H           1.98521888267823   -2.63011050075975   -0.36319894466935
H           1.00042947790666   -1.80353595689164   -1.20718012149675
O           2.55673341763193   -0.69142350101870    2.42752869379959
H           2.81322466927275    0.07819469758736    0.94509242630327
H           2.32278035197582   -0.29344146086820    3.26709831211603
H           1.72649774903320   -1.09903977827372    2.08118287200359
O          -3.22814391136142    0.88499416330457   -0.48799022133943
H          -2.49082967048247   -0.09422534221746    0.37482018537533
H          -2.85576002008581    1.73228265548734   -0.16714078721413
H          -2.84938336677651    0.75558086967854   -1.38589396298338
N           2.50829895072492    0.31285870393235   -0.02703529926332
H           2.45833828251929   -0.60142531836783   -0.56965417075030
H           3.09546486750792    1.00711834718724   -0.47567961164739
H           1.48884172540523    0.62764807908051    0.06922242323401
