    26
        -50.46843466  Gyration_radius:  2.53693989838 Dipole_moment: 4.841
 S          -0.81601135256618   -0.43161101331114    0.06242325042433
O          -1.60652344854084   -0.22603106223822   -1.13341406920485
O          -0.01000192860696   -1.64838180025750   -0.02655019417090
O           0.06194053139324    0.73564920561685    0.30384717232445
O          -1.77025005840446   -0.53986535486701    1.25506886789776
O           1.60792146352654   -2.07586329024513    2.00323140957980
H           1.63364222947607   -3.02637338736109    2.12609734817891
H           1.08233716354789   -1.92292208826943    1.18667571756271
O           0.53935913383290   -1.49869614828702   -2.57069199992398
H           0.39495217984312   -1.71188456654425   -1.61772961972590
H          -0.34578297888961   -1.48270112838669   -2.94607243851405
O           0.29718592661894    1.86248262492598    2.71389370397680
H          -0.48561181637255    2.40999879965999    2.79435295415541
H           0.29456228366340    1.51311025926754    1.79927608928097
O          -1.38522636151744    1.80057869002389   -2.78779246907236
H          -1.93235128739434    2.52038945041054   -2.47063636884001
H           0.26464412870175    1.54831015093420   -2.52105005710522
H          -1.60357197172074    1.02439058113886   -2.21745159407720
O          -0.28975593274527   -0.70231325027344    3.29611022619407
H           0.01851210138264    0.22664332515633    3.33527232504985
H          -1.20912383564092   -0.65062156657559    2.11339434147960
H           0.48372848484002   -1.22212597633086    2.98315441824189
N           1.04645152205877    1.03192689482124   -2.05732838140219
H           0.99974708737664    0.02316498756127   -2.39360590688134
H           0.77488023323912    0.98548071723050   -1.02192507940323
H           1.95434648293860    1.45726495621418   -2.20854963617811
