    26
        -50.46843470  Gyration_radius:  2.53711665731 Dipole_moment: 4.840
 S          -0.66445072609573   -0.18630506451216    0.61613382901416
O          -1.63010886529434   -1.12004403721984    0.07509080558052
O          -0.08845618839242    0.64153174512202   -0.46772453739026
O          -1.39585632949798    0.75892828592563    1.57327255792391
O           0.40584595132576   -0.87431026700604    1.33677061397545
O           2.32870097681084    0.67455674734774    2.24472863111288
H           2.60902857948541    0.28887311464087    3.07652384237722
H           1.68021330323806    0.04415382805570    1.85954578753236
O           0.16753544667576    3.29111492969243   -0.24983686193548
H           0.13342926246124    2.32779366863635   -0.42118947443654
H          -0.71067760748364    3.62791308130519   -0.43513873522417
O           0.56250481992808   -2.96316842194883   -0.21505285980173
H           0.60282816750587   -2.26067869766043    0.47735357493293
H          -0.33905610146174   -3.29372960915802   -0.16397887117181
O          -2.14849070257329   -1.48483439347486   -2.47298025520302
H          -2.08632970359006   -1.40210207025696   -1.49084013449296
H          -2.81450198509456   -0.85296153172797   -2.74718422723361
H          -0.46845267452260   -1.35244510360874   -2.60320753547001
O           0.33024779950516    2.45242843727681    2.30608448172717
H           1.16258310302565    1.93160109981353    2.35527200210970
H           0.39571763912130    2.97197699191275    1.47830416596141
H          -0.71817016228222    1.44788578308594    1.93356269859510
N           0.47242541847369   -1.20601305912990   -2.17173291255077
H           0.64012689176407   -2.01587383960936   -1.50174016964595
H           0.35869927449618   -0.34932536373980   -1.53827632790163
H           1.21466437249234   -1.09696626366458   -2.85376008839424
