    26
        -50.46843424  Gyration_radius:  2.53572035514 Dipole_moment: 4.827
 S          -0.83579939959993    0.39669655269976   -0.03624997407632
O          -1.20149891282031    0.71564847382061   -1.40071279048834
O          -2.11269954519121    0.04616462442477    0.73270683754018
O           0.03969879569472   -0.79665967619549   -0.00554602966276
O          -0.16682306161742    1.51949854208982    0.61942948032255
O          -0.37653549584880   -2.80923162359594    1.70067803639290
H          -1.09583761903030   -3.30536500012366    1.30629145406632
H          -0.12898567599611   -2.12130449554986    1.04951957088334
O           1.13830363761739    2.39236629610982   -1.46153534225666
H           0.41472854396634    2.55325489304682   -2.07401296501580
H           0.69118403057695    2.20811863573669   -0.60094202890484
O           0.71865017478557    1.02943158045025    3.04737227138217
H           0.61742747179463    1.84743074854389    3.53708565075759
H           0.47891722467893    1.23961486119251    2.11745672448746
O          -0.27964315683588   -0.48001346894071   -3.54864517976509
H          -0.81972419354941   -1.25031037232953   -3.73003257101701
H          -0.73943651664610    0.00723331553617   -2.82302327076059
H           1.17679509600483   -0.40679290572060   -2.69402183107995
O          -1.34443051091605   -0.67427467923230    3.02924545330818
H          -0.56410320542652   -0.10285121746675    3.20538906545638
H          -1.85234905058591   -0.21467932107829    1.69613830390689
H          -0.97805608644345   -1.55222897739754    2.79582135663443
N           1.72333610153771   -0.14480845984629   -1.84219738659626
H           2.67285248511200   -0.50028886644643   -1.84892492291615
H           1.14634658824983   -0.51156431004636   -1.01738834338244
H           1.67768228052190    0.91491484030491   -1.75390154921314
