    26
        -50.46843468  Gyration_radius:  2.53710499791 Dipole_moment: 4.844
 S          -0.74957547528766   -0.53487060038921   -0.08339779957213
O          -0.93247654783111   -2.01390354805219    0.26849655992606
O           0.42107017106859   -0.04184908622911    0.67694436994822
O          -0.50014900564147   -0.40416161136845   -1.51819108186957
O          -1.94471035493519    0.17762237857140    0.31813873796115
O           1.72700817538111   -1.50933589194352   -2.37762653490067
H           1.53513888745694   -1.84555301389736   -3.25475882392352
H           0.92625347941498   -1.01281857935740   -2.09709701422075
O          -1.32999221221985    2.05397892518073   -1.77647536140676
H          -2.23182239102417    1.97440232294076   -1.45236594691929
H          -1.01506906677196    1.12117709396775   -1.84813092527176
O           2.18400726657115   -1.70165282154337    1.80390755315495
H           1.75458356468608   -1.98620493571153    2.61242091760869
H           1.60726313653434   -1.01247262632087    1.41527970857609
O           1.26703763257434   -3.12323285948051   -0.29385458776767
H          -0.06945521671139   -2.51918491985932    0.01623346391764
H           1.57668385982081   -2.63764773303130   -1.09060262099787
H           1.80570414247936   -2.77819146397750    0.44790501333329
O          -2.03488631207857    2.20781958970010    1.98055448459242
H          -2.14089958821423    1.42335320581741    1.39004398878514
H          -2.10160592022639    1.87262399118270    2.87571093144977
H          -0.64185324521625    2.66685419825172    1.14102595052551
N           0.07802175817701    2.49568238637483    0.40244210354831
H           0.38163337074354    1.47733933792156    0.53920278189758
H           0.85399636629943    3.14725793770783    0.43912673555012
H          -0.42590646526097    2.50296834359776   -0.53493259390288
