    26
        -50.46843442  Gyration_radius:  2.53627048541 Dipole_moment: 4.836
 S          -0.85521574010496   -0.34890687277394   -0.07499948919598
O          -1.29697894713196   -1.79318039988344   -0.32731253207155
O           0.54942404017580   -0.23146336251946   -0.52766377415798
O          -1.70722476612846    0.52786864032456   -0.85123125699102
O          -0.94134790122708   -0.05752143105682    1.35531253255690
O           0.68429731994395   -1.45583918236731    2.87884962862475
H           0.11637463924850   -0.85309899208300    2.34917282106861
H           0.21265312699800   -1.60928450486730    3.69941195046026
O           2.07773259742531   -2.37330680590579   -0.98813010117296
H           1.79785086923835   -2.67962256995876   -1.85238729245629
H           1.60874431615589   -1.52821541788430   -0.83185076903934
O          -1.19464927472295    2.52924503375229    1.15296426239882
H          -1.97919043697593    2.59069436175143    0.60029647643947
H          -1.14122376454466    1.57314524632741    1.39269000585586
O          -0.89085102246456    2.26065275630887   -2.64752574412815
H          -0.81491011594533    1.81754681601113   -3.49364184953426
H          -1.32510920110661    1.61293906864949   -2.04162740514188
H           0.32202081725351    2.53909298365056   -1.50317387748174
O           0.36832484443486   -3.23755061930700    0.90784174559014
H          -0.66836123975068   -2.42313791490452    0.19389914133533
H           1.13661827813429   -3.12933861616582    0.30996701682101
H           0.58382160499134   -2.71086901320761    1.70947608541136
N           0.77333398338886    2.33337233548499   -0.58293733784772
H           0.84584666639215    1.26523308137589   -0.54001558425852
H           0.07003397421978    2.58660878051193    0.17476127942117
H           1.66798532202473    2.79493660871558   -0.46214595256195
