    26
        -50.46926246  Gyration_radius:  2.54934081676 Dipole_moment: 4.552
 S           0.43710457158250   -0.33937863849382   -0.09754975832722
O          -0.73688578094961   -0.85766213916807    0.77913558740743
O           1.68925981393217   -0.65513531248800    0.54207725288848
O           0.24948551164785   -0.98270723690189   -1.39182686785584
O           0.24301453672956    1.12013782388354   -0.22547425877438
O           1.44318333836773    1.72156169558065    2.08295489066785
H           2.23759097286347    1.18407431958760    2.01309181883712
H           1.02265501461410    1.65897819674536    1.20550348304685
O          -2.39126319053645   -1.07464767585392   -1.42493794943624
H          -1.43168353202597   -1.27076307865133   -1.49959174030432
H          -2.58823028076011   -1.21966529611881   -0.49483171668559
O           1.85278768719116   -1.87248930686740    2.90064395155478
H           1.91478156540021   -1.46348192553440    2.01195437768445
H           1.78939892579299   -2.81730066644174    2.75544527903146
O           0.31472012584796    0.43112716890458   -3.64016001785202
H          -0.99063290795775    1.19820910698224   -2.86753522888786
H           1.19448219141074    0.79749917366062   -3.74171376257471
H           0.37579313830327   -0.22269814853485   -2.90866093439011
O          -0.18109888107017   -0.12141146423695    3.12377849814298
H           0.34004930284702    0.69348819916774    2.93801211270394
H          -0.56849817729887   -0.55851969378715    1.75083628822408
H           0.49040891524078   -0.80003711859762    3.33747225739541
N          -1.57313108695689    1.36450189252840   -2.01501195942682
H          -2.13866737801380    2.20349398682430   -2.07752739319193
H          -0.85556643603080    1.39431697231685   -1.21021114390065
H          -2.13905794017502    0.48850915548718   -1.84587308597720
