    26
        -50.46926248  Gyration_radius:  2.54921940876 Dipole_moment: 4.553
 S          -0.48274914560873    0.14112296120174   -0.25092482829012
O          -0.28443111975851    0.48843672015066    1.25093818631377
O           0.59926001874175   -0.80229876265962   -0.60220581539772
O          -1.78420693535606   -0.44836205619755   -0.43916419437375
O          -0.29202594287835    1.40308158863727   -0.95468491700935
O          -3.48016938218507   -0.89971321421415    1.55866149155822
H          -3.96675555472343   -0.09188556779937    1.72712832296248
H          -2.95871851647584   -0.73928460391823    0.74429173239681
O          -0.68777011468026   -2.97329015972269    0.27061991411530
H          -0.12113952826522   -2.28549598592561   -0.12495778211671
H          -1.55389983651092   -2.83422520635522   -0.12344531772017
O           1.52094551328753    2.48815538529769    0.63237136742737
H           0.75091844990700    2.31267068949409    0.04832876062795
H           1.24261079168766    2.15884208937242    1.49201151100176
O          -1.04677801005625   -1.55971344755512    2.50489124552547
H          -2.01337695897306   -1.42512660642333    2.43587770668027
H          -0.84597424230222   -2.26122886898416    1.84335489986021
H          -0.56042571351697   -0.33241799462137    1.80943983002187
O           1.32672685319396    1.56128119466660   -3.05540648902645
H           0.62248058222514    1.62298816204727   -2.37235922986628
H           2.44634093498884    1.05885994510106   -1.87949544640725
H           0.96995926624226    1.01120390734956   -3.75439982969871
N           2.65837983045768    0.68641683692971   -0.92544143408455
H           3.59615022830934    0.30988237489100   -0.84524215883518
H           1.88851566636137   -0.04968043398728   -0.75561804054395
H           2.45613284589402    1.45978105323297   -0.23456947510593
