    26
        -50.46926244  Gyration_radius:  2.54928315643 Dipole_moment: 4.551
 S           0.48018813407659   -0.27379982938783    0.10087954288724
O           1.15415547647765   -0.83212639187697    1.24577804032113
O           0.03588717529031    1.11310850851868    0.35245327659021
O           1.25233769684223   -0.33383083083212   -1.13382103958155
O          -0.80638897003049   -1.09451336109825   -0.19328468311429
O           0.21349925788311   -2.90446541373021    2.62116761478992
H           0.48808760499429   -3.70811039533541    2.17792739997484
H           0.67590971266155   -2.16998207801104    2.16551797457684
O          -0.74416532133705   -0.38406270533558   -2.86416766294227
H          -1.40173481907293   -0.89313041276478   -2.38106816556471
H           0.08992501629118   -0.54037225343611   -2.36954109508390
O          -0.53453149148091    0.71465764280340    2.93064956957432
H          -0.33208405965618    1.01757242237308    2.02625541167957
H           0.25553662331383    0.24581303213437    3.21490142768277
O           2.25562938711950    1.87190378079095   -2.22301206818637
H           2.90049193935770    2.24145817556903   -1.61797123965484
H           2.04191193737289    0.97648319565390   -1.87818064475535
H           0.60339775117882    2.26828869249550   -2.26511544051356
O          -1.92974130424877   -1.37943105146868    2.04391248021409
H          -1.31837992840999   -1.21767303483858    0.69255695297468
H          -1.36430766157709   -2.09169269545465    2.40463133706481
H          -1.62488167381524   -0.56354781231490    2.50384533829850
N          -0.38544241271172    2.07787895530779   -1.98254867930415
H          -0.69935091001554    1.21312911360197   -2.50206853920431
H          -0.99794322057251    2.87410243408793   -2.11868193298552
H          -0.30800593994018    1.77234230255353   -0.95101516575807
