    26
        -50.45156382  Gyration_radius:  2.6711816593 Dipole_moment: 4.836
 S          -0.86383300277628    0.21105640143564   -0.32248409696449
O          -1.24879227140813   -1.17892230231313   -0.28330964234194
O          -0.30550889440986    0.55290493630617   -1.70034537097431
O          -1.90215263421532    1.13548948329731    0.03871303690127
O           0.34884179964004    0.43964726146653    0.59139744968175
O          -2.51684471586003   -0.93446212447167    2.06517706989351
H          -2.12790285642435   -1.22635104784699    1.22125537767302
H          -3.18704091684861   -0.28672990454734    1.83210788161426
O           2.58365342877293   -2.15186350876760   -2.02193896069730
H           2.74613732845503   -1.25531447483233   -1.62645175406383
H           3.15481033800796   -2.22428069374395   -2.78834961653186
O          -1.88487255188486    2.67660765076088    2.22416606805366
H          -2.01511073047296    2.19764273656655    1.38166999095203
H          -1.57658044842460    3.55371797267097    1.99226595386021
O           0.03834402642699   -1.75194746637265   -2.57417048765147
H           0.98346139661578   -2.00067165946769   -2.39100093325419
H          -0.48365893965641   -2.09058648399525   -1.83207850377649
H          -0.12247939090969   -0.36220096150298   -2.17757457219567
O          -0.48090491015638    0.52044534533808    2.91965604875909
H          -0.92872142948567    1.39575198379079    2.91609650738125
H          -1.21583394916939   -0.13549588014954    2.83892373167346
H           0.05985849831099    0.46011461108279    1.63245639338646
N           2.78302282698523    0.35916458311483   -1.08616403248282
H           2.53367824604061    1.01393452135627   -1.81803434892788
H           3.60832087632732    0.71273070604537   -0.61788170990807
H           2.02010886650613    0.36961831474915   -0.41410145007123
