    26
        -50.45156367  Gyration_radius:  2.67083322702 Dipole_moment: 4.837
 S          -0.34628689700461   -0.18229912328858    0.86230360371864
O          -1.17544225034159    1.09799208405636    0.83986494125770
O           0.20660439928621   -0.39599409408859    2.17065347857781
O          -1.12940843200081   -1.27965260425037    0.34833747622171
O           0.79275199868126    0.14487861929259   -0.11418529706444
O           2.81638983467916   -0.62589202163068    2.70753528527608
H           1.84349285037592   -0.53605119981929    2.66688118135923
H           3.15395889936670    0.21923737717737    3.00740994655038
O           0.64802652106117   -3.13022045144921    1.12280534837698
H           0.64815310858335   -2.98193765496662    2.07205270485549
H          -0.11265327168580   -2.62900827443856    0.77803975722997
O          -2.21594812804784    1.23524484390855   -2.98966682909849
H          -2.75702272340096    1.93117991718467   -3.36612055870129
H          -1.38526428077375    1.66581252362560   -2.65646730013942
O          -3.02658781960477    0.34729648965192   -0.64483552130643
H          -2.79613224140865    0.62732676865109   -1.57064664722408
H          -2.71074224930009   -0.56288349021883   -0.54640066860554
H          -2.00710725247884    0.89740552956163    0.23427561629931
O           2.56442273635975   -1.54777087347169    0.21965552669519
H           1.99115221039903   -2.32411477447064    0.43299906811049
H           1.59493915209641   -0.57552406751009   -0.03941130397164
H           2.92223682674927   -1.25771491789473    1.08839761179818
N          -0.08688316282905    2.39052709865439   -1.82604539409787
H          -0.40121752837112    3.05374722042958   -1.12758382091433
H           0.66653613455856    2.82009802465650   -2.34877958079195
H           0.30203158505423    1.59831704064845   -1.32106863444049
