    26
        -50.45156377  Gyration_radius:  2.67106842621 Dipole_moment: 4.838
 S          -0.86928887929073    0.27814857264578    0.24140382697628
O          -1.34444051240494   -1.08348567292623    0.19646672544787
O           0.65928333458265    0.28986165647356    0.38839117380497
O          -1.07333090241522    0.94055334559358   -1.11743287488318
O          -1.44496028189906    1.08444969834127    1.28136184468846
O          -1.16404217495555   -1.41305913107556    2.85000393171346
H          -1.77177765947974   -0.73207207158511    3.14998771875998
H          -1.31061507059139   -1.49266803912785    1.89037518151984
O           0.86119614771367   -1.59520188488389   -3.47965982395041
H           1.31497203953896   -0.81749718626986   -3.06022699526838
H           0.93562554480668   -1.48093556827686   -4.42847429050219
O          -0.10234234723299    2.05836019560270    3.37903980417470
H           0.14585186538653    2.96702664931884    3.20337425107866
H          -0.70994167976462    1.79379217096267    2.65999228415798
O          -1.52605518671634   -1.08779850748009   -2.48639905253455
H          -1.28213244191240    0.16630090787598   -1.79270422459793
H          -0.66355860414788   -1.36837330671872   -2.89396026849370
H          -1.62098236690637   -1.59574452882373   -1.66730069966720
O           1.18057687489144   -0.19361778475576    2.75721140448574
H           0.90828320349706    0.65469171271256    3.17304571199670
H           0.43698027528196   -0.81536114408396    2.95037410447284
H           0.95952920895220    0.05881346667288    1.40005940751214
N           1.82560785295974    0.62284643513448   -2.30908039773944
H           1.53687221426222    0.46833207141404   -1.34648405897670
H           1.30945842483615    1.42932824847483   -2.64046248109514
H           2.80923112102289    0.86330968481131   -2.29890220308309
