    26
        -50.45156383  Gyration_radius:  2.6711582443 Dipole_moment: 4.837
 S           0.75106056660125   -0.41119373157009    0.40163580807074
O          -0.75848699100887   -0.18316769368798    0.23596200736929
O           0.97041586697525   -1.30536086550344    1.50417299171806
O           1.12683948216723   -1.08835499847412   -0.91269536204792
O           1.42742444120000    0.85895887863889    0.50664670408054
O          -0.90881578676299   -2.07396706326990    3.24463191776341
H          -0.13282956599926   -1.90215178306738    2.67498675730632
H          -1.24985681431684   -2.93143283110136    2.98653687035003
O           0.75563672624754    1.19186266665929    3.08005171742522
H           1.10734324419684    1.25576726037083    2.17404423255579
H           1.17761479512232    0.42118258573641    3.46870760427676
O           0.12150714047958    1.73400686470225   -3.51813182752260
H          -0.52104578386275    1.03391860028961   -3.22886406767229
H           0.22786134472316    1.63790721639286   -4.46593616623856
O           2.14975950021298    0.85479306704070   -2.08404456048167
H           1.58302664815741   -0.35121811934607   -1.50191379227121
H           1.44140231627841    1.26904923341055   -2.64556278989906
H           2.15128153824104    1.33624214048448   -1.24378209473549
O          -1.67778234989780    0.35687063786460    2.46756970423019
H          -1.22239334291624    0.08382334114504    1.17432383494919
H          -1.62948393257438   -0.52706425831575    2.89537931326853
H          -0.90411798283799    0.85233620216326    2.83187188667198
N          -1.38682166357700   -0.31388922117285   -2.65107795200825
H          -0.94173606235274   -1.18898839711118   -2.90148106541659
H          -2.37654467281657   -0.39848588669231   -2.84802197086489
H          -1.28125867169823   -0.21144383556036   -1.64500970088663
