    26
        -50.45156364  Gyration_radius:  2.67167333771 Dipole_moment: 4.831
 S          -0.71709126925827   -0.61176171113932   -0.04696589579945
O          -1.36330371231400   -1.36891925134140   -1.08245416669806
O          -0.02962452352887   -1.54675674117314    0.94300397411547
O           0.46684649280944    0.15526691207797   -0.65353805936001
O          -1.57806091339701    0.30275972028345    0.66312528706708
O          -2.74478332038783    1.20396650326123   -1.57549029046753
H          -2.46097372437957    1.00769925796665   -0.66463793929671
H          -3.13023939935594    0.38945729734720   -1.90866047571449
O           1.69301131866577    1.07503050133903    3.37589891293404
H           2.15587300235892    0.72374246006245    2.57035518996686
H           2.22318831129940    0.82048622943998    4.13286162299188
O          -0.86304303964701   -1.12359379934918   -3.69770559835607
H          -1.12967064509260   -1.33846449466478   -2.78174953567422
H          -0.25370865104480   -1.81084112133010   -3.97073896742154
O          -0.34958833564022    1.29119938508171   -2.69305125671501
H           0.17268662817495    0.69876327739726   -1.53968194249320
H          -0.45254521843590    0.52030022342351   -3.29457538256715
H          -1.26818938281359    1.49616646231756   -2.39157492058369
O          -0.51749919909114   -0.32251410788372    3.05403392126520
H          -1.14845285201868    0.22734685202090    2.56674116840073
H          -0.17627429490423   -1.12769024469765    1.89264672037663
H           0.26774888803674    0.25516653048774    3.24998691689837
N           2.75585987103463   -0.09441490459880    1.20244565026791
H           3.63963665591964    0.18652637907042    0.79577406672341
H           2.02933888269406    0.08915585216410    0.51526597596822
H           2.77885844032364   -1.09807744757804    1.33868498417047
