    26
        -50.45156376  Gyration_radius:  2.67118901143 Dipole_moment: 4.836
 S           0.88069490214324    0.27240996667987   -0.21356548496367
O           0.47353417941539    0.64667013660368   -1.54620350883701
O           1.86699583433347    1.13131340608574    0.38024719692536
O          -0.34748563350390    0.21104792353972    0.70624735614906
O           1.36603846417213   -1.17385421055542   -0.20970503724495
O           1.44444759824245    2.70360719173468    2.50187369786081
H           1.76057741233744    2.26271875078936    3.29169522522708
H           1.74968303357868    2.16604343666787    1.74427730158043
O           0.26281556137012    3.24693214236937   -0.93120518309671
H           1.16704693340491    3.43490159168682   -0.66642833283545
H           0.28888992792856    2.36951884084326   -1.35325084960364
O          -1.79760364314003   -3.02473283219033   -1.73767525697564
H          -1.69310990680627   -2.88474787271519   -0.75986442434235
H          -1.83520033520842   -3.97202375630200   -1.87948119747564
O           0.48330614515240   -1.89641689841529   -2.42170610960464
H           0.30503986577190   -0.96820337140626   -2.63262266722400
H           1.05051542140726   -1.59097086137844   -1.11801945063541
H          -0.39998861512206   -2.32460531119520   -2.26329051026625
O          -0.93633667531522    2.53448900354578    1.31559828773030
H          -0.68433992676671    2.97900028915198    0.46963427129505
H          -0.67639397035475    1.19969131580208    0.99184728095838
H          -0.20168657426132    2.74469983984538    1.93431199369017
N          -1.23304427064353   -2.60669108726671    0.85601075030543
H          -0.36138559798551   -3.06724542431784    1.08982632501143
H          -1.89189335418001   -2.78533706608848    1.60399309882891
H          -1.04111677596381   -1.60821513354847    0.84745522755178
