    26
        -50.45156368  Gyration_radius:  2.67173086812 Dipole_moment: 4.833
 S          -0.03765569523760   -0.10148625074932   -0.93754755437805
O           0.45516622502828   -0.49884748773880    0.46151660783324
O           0.45752752285547   -1.05109247177281   -1.89475908212203
O          -1.47204975964154    0.05375194159306   -0.92324493180081
O           0.62596447327494    1.25621055337163   -1.14582028911844
O           1.65148259693881   -3.36368229237874   -1.27980783907886
H           2.60218401097738   -3.25345384370614   -1.32678984098933
H           1.25990714082095   -2.54810594772247   -1.65084727854859
O          -1.92556791738285   -2.58561307628355   -1.03681598888582
H          -1.50289583359755   -2.79687456404353   -1.87333825557739
H          -1.97553858782456   -1.61343745913932   -1.00516886967422
O          -0.96075053175975    3.33107711189272    1.84399913803546
H          -0.11402408966808    2.82243439189996    1.94901556920418
H          -0.75377859962381    4.25144748090148    2.01446137047520
O          -1.32834119942501    2.72967623479348   -0.69514691906796
H          -0.11987550541435    1.97500166617889   -0.98478058101900
H          -1.90140710388095    1.95004164839021   -0.73595339087041
H          -1.28361817896833    2.99731439487491    0.26142105394091
O          -0.00863684860342   -2.91034606410382    0.75593112608678
H           0.25946214092810   -1.54099813650336    0.66751106217473
H          -0.85057767059528   -2.96405625081332    0.24117573360038
H           0.67152915650878   -3.29447902030008    0.15890113456120
N           1.35042367734080    1.96009494687088    1.83960463736553
H           1.89291893615944    1.78186385283254    2.67587768399999
H           1.97145923525200    2.35112112195107    1.14098126008568
H           1.03669239556567    1.06243751984593    1.47962444378637
