    26
        -50.45156368  Gyration_radius:  2.67146488438 Dipole_moment: 4.834
 S          -0.76912044914559   -0.51917685148568   -0.17121156046405
O          -1.33424899113255   -1.18238674911850   -1.31306405435443
O          -1.67951398227651    0.61606872777932    0.28653211521909
O          -0.46785052817437   -1.38291166778583    0.94454735711526
O           0.49968004430421    0.22940608958266   -0.60521333396091
O           0.64202980777174   -3.27045105223810   -0.60146712936745
H          -0.10657241053303   -3.49840867750972   -1.15884097614448
H           0.27777151447248   -2.72527588415012    0.11877169531093
O          -0.12828634248920   -1.43973667199546   -3.68615529705021
H          -0.69592009429099   -1.40093945166016   -2.89087437637419
H          -0.44873668133266   -0.76037375786508   -4.28109658596050
O           0.46818941833047    2.14508825014600    3.25447557496060
H           0.18432834554554    2.89627834336217    3.77791519846674
H           0.56101891402691    2.46579903802632    2.31896580422584
O           1.87425780724260   -1.34365593778158   -1.92946216804701
H           1.16137024329436   -0.41058879768481   -1.17006178478766
H           1.65347612947709   -2.17722805945826   -1.44667974989771
H           1.34366575835679   -1.38824690331840   -2.75596725965792
O          -1.41444780561848    0.37228058373099    2.74897280914206
H          -1.65270560550707    0.60869443123325    1.33455323499115
H          -0.98524684718735   -0.48281932843743    2.59907022835128
H          -0.69891387559745    1.00125066875268    3.03392391059309
N           0.45932197695381    2.89486904494424    0.67427671758943
H          -0.46956401495730    3.20991805535904    0.42013496315922
H           0.59716437133039    1.99745099689581    0.21664363368735
H           1.12885330719861    3.54509556075909    0.28131101322836
