    26
        -50.45117008  Gyration_radius:  2.66325356107 Dipole_moment: 3.407
 S          -1.01150350748645   -0.27286349393490    0.31786556887872
O          -0.15973637856791   -1.14145963234755    1.09803386876363
O          -1.35882509404236    0.97239536186496    1.12512526114163
O          -0.20428167856575    0.30272165569087   -0.85565810657468
O          -2.20340360936687   -0.89138904191466   -0.18523667985464
O           2.30179736278560    2.35517500530463    1.82090526506715
H           2.49968380439584    3.14171751377864    2.33180228094859
H           1.76773684342942    2.64969883279793    1.03668155479104
O           0.90722661441925   -3.13491698326427   -0.32802469252400
H           0.26766087588709   -3.84898965536455   -0.28482125760113
H           0.60379599228628   -2.45800222772936    0.30860928587933
O          -2.13785502620226   -2.51202817954902   -2.28543556880022
H          -2.86647181823059   -2.28166633698407   -2.86416389256359
H          -2.27016165818011   -1.99608905472159   -1.46278788549659
O           0.34447852671196   -1.56832026556168   -2.38102606496941
H           0.76450359172627   -2.20112139937233   -1.74897238880257
H          -0.54330073210035   -1.95590974665455   -2.56108772523511
H           0.06755092172750   -0.46792747160870   -1.55621054150884
O           0.43058926231754    0.81233455657408    2.85056971687840
H           0.59574954238471   -0.09890325188672    2.56898648832568
H           1.20069609630278    1.35381574302468    2.53110051830718
H          -0.65930536107858    1.00937129698422    1.89926422172052
N           0.62092155806049    3.05019788661849   -0.15569699129711
H           0.39990645352256    2.12788555135146   -0.52228873352231
H           0.87871684835886    3.63767543023270   -0.93915510390746
H          -0.23616941050130    3.41659792667140    0.24162161195860
