    26
        -50.45116919  Gyration_radius:  2.66182407862 Dipole_moment: 3.380
 S          -0.98830426976741   -0.41555053166167    0.25727455118245
O          -2.14254965270517   -0.99478510087648   -0.36579357951547
O          -0.25146315803500    0.46777621941215   -0.76098217791055
O          -1.40759887242782    0.58672879451188    1.32589859278826
O          -0.05790585478000   -1.36922030370474    0.81727992067962
O           1.14691678616111   -2.89393520493054   -1.01833118801965
H           0.79916055029540   -2.40422533528559   -0.24704496914167
H           0.57492609786279   -3.65603036312885   -1.13159702754314
O          -1.99314916057155   -2.10531472699193   -2.77108871300625
H          -2.14856323432336   -1.79485653948640   -1.85453927304853
H          -2.74799271681489   -1.81083000655812   -3.28345755900149
O           2.16203391942075    2.06122324729802    2.27424193740863
H           2.31705343874550    2.72621246247881    2.94698989119305
H           1.58647424736483    2.48197539416217    1.58247016082960
O           0.40540355380113   -0.96673748657328   -2.66843005197042
H           0.89087561988017   -1.68594006220727   -2.19575684742738
H          -0.45338834654596   -1.37731218562008   -2.92342063073091
H           0.06301807029275   -0.10341655452711   -1.61766811017118
O           0.43617217165992    0.19009019235449    2.95303774469372
H           1.15616800678391    0.84610991491296    2.75367383712876
H          -0.69128099734448    0.50717127523905    2.08122794049823
H           0.65870743511553   -0.62134097922033    2.47448266221784
N           0.38113045079699    3.04954790959203    0.52277322964359
H          -0.48957860656733    3.25348237328405    0.99916023410115
H           0.21789281117045    2.21638817603451   -0.03683511411533
H           0.57584169054308    3.81278942148486   -0.11356547076349
