    26
        -50.45116944  Gyration_radius:  2.66218077815 Dipole_moment: 3.397
 S           0.97137770892736   -0.15449137140687   -0.49439707492518
O           2.28680724452941   -0.65308663593536   -0.21664606979152
O           1.05152713756700    1.14169387030222   -1.29176444637154
O           0.09674568456163   -1.08951253856730   -1.16479452349013
O           0.31292831465845    0.29856775955982    0.81757396670290
O          -0.52558252699589   -3.21879665293210    0.32630066606648
H           0.16129466644177   -3.86450283528248    0.14730393775415
H          -0.39678994708952   -2.49710834429943   -0.32036677186041
O           2.73003077425986   -2.32698468943114    1.79409248016882
H           3.51462722194510   -2.03313995623942    2.25988464134035
H           2.67307660087731   -1.77836060849550    0.98402875726675
O          -2.79893143587001    2.13873058242822   -1.30509517497348
H          -2.17278227696943    2.46981486576321   -0.60859353699817
H          -3.16119641962583    2.91160217610884   -1.74128811878491
O          -0.98068053040183    0.83900397416292   -2.69991747471911
H          -1.00072899215092   -0.09263365429975   -2.43802714154736
H          -1.73688873339884    1.28377119246422   -2.23217585277986
H           0.22970873208261    1.12578138293335   -1.93541009682763
O           0.21415645898518   -1.65979542132415    2.32845500219829
H           0.23919565479968   -0.51504706897742    1.51874734733042
H          -0.23975025570733   -2.31581346643523    1.74540858946155
H           1.15399777909442   -1.95555651687936    2.34474155938525
N          -0.88739679926069    2.96182543271309    0.39340805484367
H          -0.51407566328933    2.05862454505225    0.67413451706065
H          -1.06872116373819    3.49371888247787    1.23577522738447
H          -0.15194925423573    3.43169509653700   -0.12137843389521
