    26
        -50.45117008  Gyration_radius:  2.66346618845 Dipole_moment: 3.412
 S          -0.60037375977121    0.11023606763279   -0.90859013665636
O          -1.27894187723838   -1.25452874065565   -0.92090813414373
O          -0.56074798813212    0.45152301942683    0.58873510585221
O           0.75230889087568   -0.00997006572496   -1.40313856472957
O          -1.40847782775872    1.07683223622369   -1.59351992808128
O          -1.13955303085451    3.67672732043584   -1.13463463343169
H          -2.01497584128079    4.05782961446033   -1.04922601599828
H          -1.27261460323609    2.75462334768058   -1.43874146880675
O           2.21665465382749    2.19323233811306   -1.01869604724991
H           1.81085152799017    1.32520468238817   -1.21224748892546
H           2.06120217141303    2.74006965864871   -1.79178067497675
O           1.22063309007061   -3.26078405905624    1.43017208481634
H           1.13326277529847   -4.18910514776595    1.65243154965627
H           0.41418470382054   -2.80359824327705    1.78726183047207
O           0.75420980751487   -2.68294412216394   -1.09801803282152
H          -0.50577242102198   -1.95171120339852   -0.99766589304925
H           1.26579437130302   -1.89504944477919   -1.33136104256931
H           1.02256376041040   -2.93414344221547   -0.17436811275900
O           0.39183856955966    2.72515406562120    0.81780206344699
H          -0.19178089221360    3.25472347324997    0.22645622717032
H          -0.15141622491278    1.43307209274833    0.75360623839259
H           1.23103815489632    2.62316489972740    0.30623249969345
N          -1.06244037857079   -2.02394155551617    2.11893615967450
H          -1.83443112883941   -2.42272989624307    1.59766544162111
H          -0.88534517328396   -1.10610404209575    1.71878068567918
H          -1.36767131986954   -1.88778285343845    3.07481629771889
