    26
        -50.45117002  Gyration_radius:  2.6633490838 Dipole_moment: 3.412
 S           1.03029511389723   -0.32669788179523    0.18423757733843
O           0.22942883134001   -1.39884716046201    0.73006519988928
O           1.40460935363535    0.65368058240777    1.28962072181625
O           2.20165881175820   -0.75104212119368   -0.52588378193156
O           0.15754286581596    0.53168103905454   -0.74394608459035
O          -0.88572718822877   -2.94388827339119   -1.14469328023713
H          -0.55784762245695   -2.46314324119756   -0.35915167408227
H          -0.23686048227548   -3.62571090495767   -1.33176321781697
O          -2.23479638352272    1.70018627332523    2.50512092765821
H          -1.74382854643636    2.21382991236450    1.81090836715792
H          -2.41533883745231    2.30870454383794    3.22337065125992
O           2.04731326626845   -1.72178051823011   -2.99109747502328
H           2.21590293770168   -1.45308490949098   -2.06383963053746
H           2.74113639358849   -1.31851200431656   -3.51539611346930
O          -0.29644236641244   -0.02067846767256    2.98024979304560
H          -0.46486000506670   -0.82214418674051    2.46428141650690
H           0.74386509545553    0.45853128025819    2.07348213147304
H          -1.08777567594669    0.56846332979260    2.85838389460084
O          -0.44810717537352   -0.85467720731192   -2.70351248941281
H          -0.82737055724868   -1.64881757515727   -2.25429719731860
H          -0.14143202421269   -0.02052799757591   -1.61811766140764
H           0.43366436997340   -1.15382080389537   -3.02571650058840
N          -0.66156956642206    2.95738347175165    0.72702163341883
H           0.21022142802217    3.22017751200657    1.17158439641022
H          -0.96457255609255    3.73240444711749    0.15001435128681
H          -0.44910946031675    2.17833087147423    0.10907405455731
