    26
        -50.45117003  Gyration_radius:  2.66338680594 Dipole_moment: 3.409
 S           0.14167161109936   -0.13042074012024   -1.07745523217610
O           1.28973564370758   -0.78909186182838   -0.49707693939582
O          -0.95834376015763   -1.15037087168892   -1.34741370166189
O          -0.50049357339860    0.78423584092736   -0.02345005519147
O           0.41856513811196    0.63151711065125   -2.26033434498763
O           1.56958583724121    3.01887489895436   -2.12742208861656
H           1.09941881545348    3.61121955323626   -2.71646282680636
H           1.21368758143451    2.12254362995036   -2.30180255430880
O          -1.48160943494598   -2.55415177589871    2.33423271316774
H          -2.01977339666517   -1.79951288599745    1.97676435453303
H          -2.10012867092739   -3.24720760766703    2.57072647556936
O           3.11726433776358    0.91503993930897    0.45236582877320
H           3.69546375163075    1.10705305377990   -0.28902210408279
H           2.53810343524170    0.18211165928904    0.16422026083517
O           1.09437937415162    2.61603084306294    0.45594493526278
H           0.15026269577449    1.60331121220327    0.22971511604270
H           1.90708375620851    2.09758298809941    0.67296312950131
H           1.26915887166940    2.97893555864982   -0.44325974415574
O          -0.13114522279590   -2.99027838495849    0.11408046676868
H          -0.71073479996231   -1.98817774839148   -0.77601857641490
H           0.71950114221552   -2.53284739756931    0.17815560605988
H          -0.57574015172153   -2.89077934461196    0.99763614321784
N          -2.85370266704052   -0.60285001541290    1.09880942318901
H          -2.07992416586493   -0.01616315205775    0.79719810936922
H          -3.52969106949764   -0.00574214441952    1.55912863190658
H          -3.28259505872126   -0.97086235750782    0.25777697359497
