    26
        -50.45381463  Gyration_radius:  2.64799575298 Dipole_moment: 1.732
 S          -0.57388338350657    0.29834091112004   -0.47526186250407
O           0.74670464760257    0.43078543942591    0.11571916820404
O          -1.56209163338421    1.15109768882185    0.31088623959546
O          -0.56754700228637    0.92186608494261   -1.86116729470821
O          -1.05918854731714   -1.05205180276114   -0.53501910270411
O          -0.59183471583668   -2.60595602441908   -2.66545278719442
H          -1.44328320064658   -2.76745472637847   -3.07594749254330
H          -0.77833495297259   -2.17255847598898   -1.80968024975952
O          -0.65862237323314    1.39668389596204    3.78070678993183
H          -0.60529990519914    0.49718792191478    3.36565382997145
H          -1.58000052178009    1.53864117211825    4.00376543190897
O           2.71138248558552   -0.40417808603063   -1.50240211592585
H           2.05843313261167   -0.14853527890304   -0.82171578464607
H           3.37872909933489    0.28446765546107   -1.51301939098097
O           0.81835998765340   -0.47108289698915   -3.37344511918957
H           1.64477704666637   -0.53232024482385   -2.84206772400796
H           0.37720290490207   -1.34891664070274   -3.28310812564233
H           0.01656486981349    0.36326324396411   -2.57261178893232
O          -0.00262936475940    2.65019942977642    1.56007123768065
H          -0.18329763240456    2.32457634477833    2.48230552996653
H           0.74875626865619    2.13350743302965    1.24101513773548
H          -1.01382901941901    1.88510591332812    0.80279159121010
N          -0.51515344003143   -0.89786618472047    2.37026751661387
H          -0.28738574457460   -1.79548329778545    2.78165302205832
H           0.24396555873889   -0.64757960715490    1.74438675900261
H          -1.32249454423379   -1.03173985798145    1.77167657486752
