    26
        -50.45381454  Gyration_radius:  2.64771951759 Dipole_moment: 1.729
 S           0.28842950170917   -0.74654028131427    0.07319486252166
O           1.52736743695979   -1.44781836803003   -0.45858198903767
O           0.15646672558146   -1.25874801882683    1.50222500997883
O           0.52375425139899    0.68690384449136    0.09958575797785
O          -0.87134465081565   -1.13914944544768   -0.67741863472695
O          -0.70958907868771   -1.70749939847935   -3.28948355886930
H          -0.91854386531389   -1.46989761504609   -2.36490079695233
H          -0.90244192411334   -2.64283143378165   -3.37676963741251
O          -1.25749066756671    1.21592892986250    3.68936113931939
H          -1.69109918220801    1.09968706348887    2.80464227499998
H          -1.59396641993712    0.51537801195156    4.25052957639275
O           1.46493916115892    1.64343890246001   -2.21863452393673
H           2.22410164862815    2.19094372380409   -2.00979111387725
H           1.05684823877487    1.39638748067760   -1.36571343610674
O           1.14659924145456    0.64539179276364    2.78001257573101
H           1.19335209052650    1.16591405099297    1.96748774326386
H           0.32781468555329    0.95390176694470    3.25291973545832
H           0.63244787051921   -0.57237695430803    2.12186057188385
O           1.78983198138956   -0.91847607418337   -2.86678608503630
H           1.70072109397494   -1.26201772026335   -1.50467961048287
H           0.92142624785242   -1.22052786144597   -3.22445596958035
H           1.73731871338898    0.06402519446709   -2.83474257540637
N          -2.16676150322941    0.75370541328351    1.19260121190161
H          -1.36693246463512    1.09766987348975    0.67051192441148
H          -2.99422587173304    1.19303537256421    0.80656816376521
H          -2.21902325061115   -0.23642826004434    0.98045736382199
