    26
        -50.45381466  Gyration_radius:  2.64817195224 Dipole_moment: 1.736
 S          -0.63608680345283   -0.14456909626283    0.46992506212259
O          -0.10800279492072    0.89725634793401    1.30567180772936
O          -1.06678840028877   -1.33405154363458    1.31218794743716
O          -1.92800094279068    0.33939317131351   -0.17704886674742
O           0.27648824715662   -0.59682373385612   -0.56619718384143
O           1.23769486761493    0.32873038957021    3.55013278897816
H           0.70109979937696    0.64898851413645    4.27750104975308
H           0.82408822927758    0.67076134255502    2.73347800163226
O           2.27551520884541   -2.11150800168198    0.37475921213715
H           2.31838863991514   -2.89471024824614   -0.17699494080234
H           1.62814401361635   -1.51111839261050   -0.04405736474991
O          -1.35390243455207    1.72937051494557   -3.44412709210397
H          -0.72674637093453    1.99944185542716   -2.72459823558883
H          -2.13523841140759    2.27531599763119   -3.34230923503900
O           0.87021182757255   -2.13647406264770    2.63612898306581
H           1.12234221652448   -1.31595675680303    3.12241532957765
H          -0.27046267889380   -1.73265403202928    1.91702485701696
H           1.53865591867532   -2.23824350041513    1.92067956552893
O          -1.72883183064508   -0.67925846760808   -2.44901245645757
H          -1.63325713878892    0.15397598430177   -2.98364767005222
H          -0.82914805046336   -0.96384270063805   -2.24183698248475
H          -1.99384632799300   -0.11206842050759   -1.11152925587391
N           0.24521919335231    2.20766594341081   -1.32516987053957
H           0.63997355611919    1.27875312631778   -1.21591750427916
H          -0.28290541057594    2.37563814835824   -0.47609088019815
H           1.01539589763223    2.86598763106558   -1.34136704620058
