    26
        -50.45381459  Gyration_radius:  2.64807523932 Dipole_moment: 1.739
 S          -0.69835322272173    0.36652349750042    0.14675053361325
O           0.02311911116584   -0.82594893612695   -0.26346286408350
O          -1.21982095398772    1.08670649772229   -1.09059341496502
O          -1.95658356812812   -0.04212876159937    0.89494977204823
O           0.07828700485140    1.28291718285175    0.93389229430923
O           0.40031252913431   -2.57052239831181    1.73389343049227
H           0.13215384509021   -3.43216532828773    1.40934276551867
H           0.37399213309368   -1.96392865935118    0.96815137284276
O           0.93738321528969    0.61515860081527   -3.92733755360956
H           0.63282537095629    1.44793383320244   -4.29153063386738
H           1.37261684017885    0.82926476502765   -3.06194732974850
O           0.13965870958911    1.11025717802144    3.60580919868749
H           0.25434216448458    1.24542867673058    2.64480503489695
H          -0.28945120728034    1.90038859162435    3.93921108118705
O          -1.03204663109634   -0.72239318511322   -2.80247872793500
H          -0.56931749869786   -1.27871497784547   -2.16232107732375
H          -1.27459599005331    0.38490614420604   -1.85616799543931
H          -0.32396130031736   -0.32042794168348   -3.37360985464497
O          -1.32012496322722   -1.04204953737639    3.07294201400303
H          -0.66905293796869   -1.71551032923923    2.77030851994329
H          -0.78595688496073   -0.31292353085568    3.46839857372960
H          -1.75222519566500   -0.48368694732688    1.85521229565105
N           1.84598002890149    1.10921025252456   -1.43608318714352
H           1.57383107668742    0.23587687336454   -0.99580042619865
H           1.30486867785030    1.82616944189095   -0.96584016856002
H           2.82211963683400    1.26965897762284   -1.21649366343970
