    26
        -50.45381464  Gyration_radius:  2.64806940883 Dipole_moment: 1.734
 S           0.63141718048156   -0.49654638029290   -0.00477454112644
O          -0.61813965214621   -0.07774523305870    0.60683189586070
O           1.79614547364684    0.07468776293825    0.79452360063640
O           0.78255095503117   -2.00146715412074    0.14447326986452
O           0.77066677498477   -0.11251268879878   -1.38168049800584
O          -2.72340545373314   -1.52193535340786   -0.20447214566123
H          -2.02953367046018   -0.89953373757333    0.08912508638649
H          -3.20077132279716   -1.78997393744529    0.58292401433064
O           0.97105859090278    3.23178145353858    2.30074581919543
H           0.69952975518474    3.10103660123988    1.35557556694967
H           1.89871614776801    3.47286884087391    2.28579046375952
O          -0.05981555611221   -1.71020406864198   -3.36394396374837
H           0.22577068185601   -1.01142849529293   -2.74338622357629
H           0.72639078240738   -1.98576903781585   -3.83881856423109
O           0.64858793279120    0.69431335619341    2.92486417332260
H          -0.20574230886937    0.48593448292062    2.52478859115620
H           1.44319681660105    0.28106380110807    1.75074516858606
H           0.74123362064674    1.68290426125272    2.86671293984496
O          -0.89871473986147   -3.13221518862567   -1.28502930467654
H          -1.71654937001701   -2.67393987276826   -0.98488910629221
H          -0.68740252193623   -2.74917224836502   -2.16934727921194
H           0.08137226330202   -2.55682555443162   -0.45452524845486
N           0.27181206135909    2.56236579993990   -0.21676018816265
H           1.02312144211898    2.09623412572377   -0.71303181895373
H          -0.17098242454582    3.20331642758345   -0.86473052447897
H          -0.40051347859743    1.83276205736882   -0.00171120331760
