    26
        -50.45381451  Gyration_radius:  2.64786257189 Dipole_moment: 1.728
 S          -0.44880039203723   -0.40987532130555    0.52556782123734
O          -0.36668140013989    0.37235198801477   -0.69596088371067
O          -0.51457631507730   -1.88989416524963    0.16911007052795
O           0.63873532654773   -0.19240730458086    1.43813559450708
O          -1.77810886626243   -0.13416518084698    1.20870347780912
O           1.27974401960488   -2.62412062144062   -2.85499579154583
H           1.42185396178764   -3.51915926335000   -2.54258551400375
H           1.72697011404311   -2.02474664000422   -2.20303623385815
O          -0.94516534211616    2.96210555761297   -0.32955862105359
H          -1.57952831513839    3.20708609572958   -1.00579170131393
H          -0.64941053914818    2.05495765492541   -0.54090004100904
O           0.51069592586070    1.69821770137101    3.33033307579075
H           0.50009088874736    1.23976718870193    4.17255077399695
H           0.71181694000984    1.02273033289802    2.65343038917282
O          -1.77822499445404    2.18811731577221    2.07784242431636
H          -0.97657059873679    2.17751195985224    2.65282368401658
H          -1.51616921197328    2.67690179392755    1.26452854790071
H          -1.84533161313703    0.86112529390088    1.61368494765341
O          -1.13478958836101   -1.76772459210653   -2.24752518809482
H          -0.86321307977818   -1.95753773838458   -0.80824613843863
H          -1.01973583730620   -0.80871390547379   -2.22851452018714
H          -0.29677808150010   -2.13362639274228   -2.63870406211743
N           2.20642662750635   -0.95117399009953   -0.95347837170785
H           3.13086188971796   -0.53665842867254   -0.97417987290501
H           2.05330212663738   -1.31095714512539   -0.01796724904750
H           1.53258637468276   -0.20011221330070   -1.06526659793711
