    26
        -50.45381417  Gyration_radius:  2.64835296617 Dipole_moment: 1.740
 S          -0.66763364455323    0.26883064095651   -0.35276631090392
O          -1.50147682275758   -0.21445798427031   -1.52799734528943
O          -0.64096735193367    1.78375308403380   -0.51461495753622
O          -1.31055532998907   -0.06166367371590    0.88814764045020
O           0.68391620873387   -0.24865027070090   -0.47972474196057
O          -2.78335242636395   -2.28384853851655    1.14625730567496
H          -3.68916086051634   -1.99600267873204    1.27380072623170
H          -2.22961245340932   -1.48099877301287    1.20725628188308
O           2.44657210834183    3.20281627544588    0.66590435536473
H           2.01779412414944    2.51748009795774    1.24086593138254
H           1.99528236389186    4.02918918410189    0.84560598407186
O           0.75688926961143   -2.89226533368949   -0.90451331439320
H           1.35232109551685   -3.04298388954537   -1.64102862726464
H           0.82722052213211   -1.94390052090671   -0.67932792061533
O          -1.86366901264415   -2.65838990514563   -1.31576293343506
H          -1.69937451785880   -1.27212003578676   -1.49758686742803
H          -0.93536223995670   -2.96062598571210   -1.18987111002867
H          -2.28488851894851   -2.71207095803433   -0.42523211626010
O           1.59880088647064    2.10554639752110   -1.57258201663120
H           2.05144913545772    2.58931013319809   -0.83086010230416
H           1.79707860908304    1.16992809542722   -1.43598415188501
H           0.22351443463095    2.02308300446460   -1.04077558981176
N           1.11270474805548    1.25408648117122    1.96968843398168
H           1.25219090992756    0.50046892773819    1.30392949500117
H           0.11208974926097    1.41729722453710    1.98354180806304
H           1.37822901367423    0.90618901118251    2.88363012363430
