    26
        -50.45381448  Gyration_radius:  2.64810509862 Dipole_moment: 1.731
 S           0.47456171844062   -0.49623824527834   -0.41685038824724
O           0.21722722306946   -1.74758876057073   -1.23986196621610
O           0.69772002154386    0.63258211532386   -1.27634740170277
O          -0.61006840554446   -0.31615954470221    0.53300766713028
O           1.75847298994417   -0.80847344260040    0.34236463445142
O          -0.54684558625409    0.84865754312794   -3.63741390979233
H           0.13303682113731    0.77977081573456   -4.31019029074191
H          -0.07948552930463    0.92466115065254   -2.78252695821600
O           1.82130078523580    0.77096045820830    3.57410004762050
H           2.77952494627866    0.77493022725451    3.54782407991280
H           1.51721745474438    1.32482362831757    2.80942769820568
O          -3.03364172488547   -0.45202907354889   -0.59970303133881
H          -3.56088866402798   -1.04934709001820   -0.06589731697304
H          -2.19498008840237   -0.31434953946197   -0.11726456435153
O          -1.72166441379684   -1.35335628001023   -2.73398617753907
H          -2.38232986833257   -1.03110846031881   -2.07921466634844
H          -1.42235933834015   -0.55295674202699   -3.22725594703893
H          -0.61483337883745   -1.64421955096052   -1.91573587343387
O           0.84111333724929   -1.45836257999640    2.57283905862546
H           1.48398457954394   -1.18627797238108    1.27160602966627
H           1.19335238298722   -0.70019410395918    3.11160732030340
H          -0.04185562088062   -1.19017185261591    2.28680078268791
N           0.94937888985237    2.00027216570965    1.33685111267969
H           1.54458212452561    1.81009721606909    0.53832226302753
H           0.68991360747412    2.97903264457182    1.29804955464208
H           0.10756572657950    1.45504531352439    1.17944825300229
