    26
        -50.45381462  Gyration_radius:  2.64798040953 Dipole_moment: 1.737
 S           0.04702669341410   -0.46375769834770   -0.65407159593310
O           1.19892948671661   -1.14597040661626   -1.37344643084793
O           0.42484356242819   -0.21492896370283    0.72658291922545
O          -0.36812488586031    0.70922636103755   -1.37127621074389
O          -1.07467848373154   -1.49449825483835   -0.68827810805418
O           1.38979870536547    2.19993391344063   -2.73499943406803
H           1.16097994193412    2.11014166549556   -3.66193276982387
H           0.66184930253824    1.78545456265731   -2.23177057012232
O           2.79736689688375    1.00510497436685    0.96597786179200
H           1.89533861791988    0.62910022253472    0.97110398220501
H           3.30130976185395    0.51493016579990    1.61827008830464
O          -3.16988500255267   -1.29293524247307    2.22673730007272
H          -3.89988284557245   -1.65485545120630    1.72170597390350
H          -2.92324429213827   -0.43684200448721    1.79034084660852
O           3.06640805906923    0.46527143715674   -1.62729522157268
H           2.04692611921276   -0.49884640900597   -1.51994108533446
H           2.61879135989082    1.20257428829989   -2.10629915438620
H           3.15939815564617    0.77045682413094   -0.69600432013054
O          -0.89418668141573   -2.46376117354603    1.60681639052930
H          -0.24158786952550   -1.79017555198185    1.83874969165631
H          -1.75898402765198   -2.14206464381870    1.97788704449208
H          -1.02772302709957   -2.03191524906250    0.20071219134399
N          -2.26436703526728    0.87192954471175    0.89678946784996
H          -2.54900957244570    1.82084243908655    1.10972242584130
H          -2.31935368799858    0.75439848404297   -0.10874216795640
H          -1.27793922160348    0.79118616633267    1.12266084513235
