    26
        -50.45381451  Gyration_radius:  2.64807525119 Dipole_moment: 1.730
 S          -0.74411248363920   -0.11253846185693   -0.27766764802134
O          -0.92926299652938   -1.52372354086591   -0.82190010615507
O           0.62231824646766    0.31733557435702   -0.52051064398600
O          -1.69142697968027    0.73340630387099   -1.11241606675247
O          -1.13301094099823   -0.08517393226375    1.10458351702294
O          -2.25179144200549    2.09066152752466    2.19404882853099
H          -3.15316673569671    1.85010903382807    2.41611408954412
H          -1.80109489241064    1.26091611105761    1.94239089888804
O           0.94856634030059    2.96497712255271   -0.27688953528620
H           0.93806381086167    1.98846620433945   -0.31348748402594
H           1.42702520007271    3.26210860510143   -1.05311566506631
O           2.10451782235697   -3.44162996382938   -0.63761541368896
H           1.58487253979252   -4.24589291193926   -0.59244305752289
H           1.86314989194883   -2.90601311781197    0.16179758779887
O          -1.71217384947300    3.04773689417870   -0.22269001588542
H          -1.75088831276377    1.75492840190359   -0.77754460570029
H          -1.97040760235545    2.88938448683659    0.71624450841310
H          -0.74583384396382    3.23462079314473   -0.20524632261672
O           1.05605997679045   -1.71436396005329   -2.32577857147877
H           1.55752700381162   -2.41506527545087   -1.82901941122477
H          -0.19608129636666   -1.67545294545549   -1.54350502012893
H           1.38725804874570   -0.86925847975610   -1.99494378888130
N           1.25313766847913   -1.82039179642940    1.34273516420111
H           1.37745102294091   -0.92759583571319    0.87569952939123
H           1.70403919701854   -1.75592566503750    2.24789710159639
H           0.25526459630166   -1.90162520217185    1.50326214101008
