    26
        -50.45381468  Gyration_radius:  2.6481109928 Dipole_moment: 1.737
 S          -0.65339040623210   -0.01791243018722   -0.46772165748584
O          -0.49436263590459   -1.01505595044067   -1.60900213211144
O          -2.14590534846409   -0.01862659947728   -0.18094074062136
O           0.05872456967058   -0.51018834558386    0.69898932294923
O          -0.22861831049308    1.27987034494769   -0.91269496020485
O          -1.38302768224816    3.51158000360339    0.01366082683912
H          -1.83758173712418    3.91149302021897   -0.73002447336729
H          -0.83924451338400    2.78795614219913   -0.35465129590498
O           2.65358377708567   -2.74694838852541   -1.44714845874521
H           2.62530064709989   -2.87789962605669   -2.39631601772747
H           2.67203489937841   -1.76631595755591   -1.29897866695893
O          -0.66680204338580    0.70850187249719    2.97153476797176
H          -0.28937134332068    0.26508484224124    2.18674529234061
H          -0.84211564827914    0.02044892783410    3.61616612626006
O          -2.64925052249643    1.72256441364751    1.51133626874446
H          -2.28114785281235    2.52638764855971    1.07341477054770
H          -2.43555506477208    0.71920310103252    0.54741458192942
H          -1.99978042857947    1.47840819281083    2.20953608222290
O           0.27195938346804   -3.03986064670414   -0.36284662104936
H          -0.26480975451264   -1.93623316743631   -1.18478615311466
H           1.19553627819837   -3.10387861444548   -0.72618326700119
H           0.34281297094898   -2.51477371073786    0.44499850480314
N           2.38845089723351   -0.10186134233735   -0.98887844820900
H           1.76294952968262    0.34148374300903   -1.65245412254008
H           3.17204474213683    0.52376540604362   -0.84253446966410
H           1.86756561711814   -0.14719287912654   -0.11863504980568
