    26
        -50.45381434  Gyration_radius:  2.64814159913 Dipole_moment: 1.733
 S           0.38742746987593   -0.67906453898944   -0.17942062415469
O          -0.21719673144130   -1.87445587525117    0.54698681958208
O           0.93157696168528   -1.26717054964988   -1.47086307890098
O          -0.66547004748742    0.27194936539210   -0.49226319359575
O           1.45478953570092   -0.13580567116119    0.61318527820174
O           3.61245303571603    0.96850357576095   -0.52636493449226
H           2.86122281636832    0.65355905234222    0.01341569739454
H           4.35307396368813    0.39693327921736   -0.31557655797379
O          -3.07580448228835   -0.94051323765507    2.51750413244579
H          -2.90759147476559   -1.68060564524548    3.10296172987918
H          -2.27955501350548   -0.35135560922371    2.57360579042298
O           0.06173457949637    2.07307737212566   -2.33678652663850
H          -0.26223538655335    1.50658803387899   -1.60934870927711
H          -0.63957396170333    2.10664572701437   -2.99005798550556
O           2.17131819678872    0.49074725472415   -2.70413890720383
H           1.48557250156078   -0.55458170776301   -2.05779960084761
H           1.49425532287577    1.20528927808560   -2.71466016456772
H           2.83695771993429    0.76385072265532   -2.02907918754859
O          -2.63740937057258   -1.58318060726368    0.00193981421405
H          -1.22810609451734   -1.90424027199561    0.30481693907786
H          -2.97693802834028   -1.38015516985544    0.91445422652891
H          -2.44281244016781   -0.72776512382713   -0.40272998659285
N          -0.81327098775795    0.52275129289373    2.39848112664435
H          -0.87919272559258    0.83105822644894    1.43351026060324
H           0.01907637895127   -0.05479528136989    2.43893192027088
H          -0.64430170791804    1.34273608871353    2.96929575203065
