    26
        -50.45381426  Gyration_radius:  2.64826113466 Dipole_moment: 1.738
 S           0.26250235484602   -0.52362977010946    0.54778089651289
O           1.40732822972720   -0.51054297969207    1.54732488666280
O          -0.98593747171053   -0.27221788371713    1.21165582578237
O           0.55959941293166    0.40108825690593   -0.53274670629145
O           0.26176760722898   -1.94669404681838    0.00292472946950
O          -1.12661794191644    1.33509307792084    3.34969010383685
H          -1.36068213606119    0.77698836503377    4.09357281408899
H          -1.22686435240381    0.78209145307260    2.55028184938790
O          -0.79658241231702   -2.06580016713618   -3.43278737320837
H          -1.10225597768508   -2.96520183940532   -3.30454950777374
H          -1.32855342009817   -1.49772839106431   -2.81751129765295
O           1.27526621408333    2.83211263525948    0.33419450113650
H           2.07193655566287    3.07742834712803   -0.14000885981565
H           0.95488680142483    2.00218464480565   -0.07041875520844
O           1.46625383068845   -1.62382816874239   -2.16129335934515
H           1.44899265186943   -0.66716175594416   -2.02785228961030
H           0.83107995669909   -1.94462290154271   -0.86744817053200
H           0.71796112079995   -1.82398011866229   -2.78521327155200
O           1.43152158891771    1.67124693261656    2.72526509038027
H           0.51895747768442    1.69590043306848    3.09949355295281
H           1.47516488483569    0.41192414419004    2.09833592076726
H           1.41993009790408    2.28410445668226    1.95497330570101
N          -1.99148201959542   -0.53359956998985   -1.56209358718723
H          -2.10816072966449   -1.02383791348629   -0.68226206727063
H          -2.83672122435358   -0.00037301830104   -1.72931500462197
H          -1.23929107949922    0.12905578792142   -1.40199324662006
