    26
        -50.45381463  Gyration_radius:  2.64815459292 Dipole_moment: 1.735
 S          -0.18158496273288    0.67332066657299    0.40029058581927
O           0.93617772134242    1.24761969734422   -0.29505233099510
O          -0.27500232860921   -0.77212635514499    0.28708660583166
O          -0.14786625157543    1.05955668962456    1.86975570779207
O          -1.46976251433134    1.30022253720378   -0.11891983585049
O           1.54515786186212   -2.06553325878649    1.76675911824927
H           0.89944952633597   -1.67907470690294    1.14326931552496
H           1.07709423679207   -2.74133179883778    2.26064392534458
O          -2.95949656960690   -0.66800743238742   -2.73506726001649
H          -1.97944694407698   -0.52293871898602   -2.78500756590457
H          -3.36937731469723    0.12287871915993   -3.08920761136699
O           3.30250999614612    1.58094137949465    0.91333867011472
H           2.52043145056144    1.45925845059876    0.34014102967541
H           3.44533391234017    2.52715567258527    0.97565962895762
O           2.00394772957819    0.32056648770298    2.85553285647991
H           0.76503234853033    0.76928919473710    2.36131561815101
H           2.00383430051415   -0.62484203650358    2.58129186936008
H           2.65092017958077    0.77072969383129    2.26207198637456
O          -2.99753371943056   -0.67576584556830   -0.10243518977765
H          -2.25220648369663   -1.24989853802713    0.11711160087521
H          -2.21189291647126    0.57373159712952   -0.06261247981011
H          -3.13472974327179   -0.77260595126722   -1.08278811886649
N          -0.30994906614965   -0.19393651433751   -2.55979295765433
H          -0.11136984799573   -0.73428260707240   -1.72355381852177
H          -0.10784695407339    0.76808744029966   -2.31113578609459
H           0.35817634313661   -0.47301447250603   -3.26869561370648
