    23
        -45.37330131  Gyration_radius:  2.31162797914 Dipole_moment: 5.657
 S          -0.97016526206741    1.29139582448747   -0.23698905353688
O          -1.25201563203425   -0.14599530346486   -0.13828759858710
O          -1.89539576076552    2.02914065887166    0.77729302412637
O           0.41400359072295    1.56408750218771    0.13747706584852
O          -1.30239437743557    1.76197244108807   -1.57289860439131
O           1.88426890388805   -2.01368658903233    0.55448506602468
H           2.65202012648763   -1.84827283838480    1.10461617085671
O           1.75242416199436   -0.13780175111137   -1.36586367060034
H           0.57540132590755   -0.35491326961554   -2.23340033749623
H           1.40271794450096    0.59395593209228   -0.80659215175249
H           1.85439595214356   -0.89718574925620   -0.74704086592083
O          -0.31557836646333   -1.26435661925799    1.96806225971790
H          -0.69803425502268   -0.83604682725503    1.14897310626880
H          -0.94587603949018   -1.93754298418207    2.23011491663601
H           1.10309837684482   -1.78906579229273    1.10132565535953
O          -0.24660284671243    1.41394182556078    2.72014659309979
H           0.35538896030158    1.61592331437806    1.98432710637917
H          -1.46044312771635    1.90367430322308    1.65836344409575
H          -0.25762112359012    0.44444908480192    2.76881611237911
N          -0.42262714849247   -0.37419908919921   -2.70483981097724
H          -0.84819310795829    0.57070675823517   -2.41085877187425
H          -0.97889306998965   -1.08115836448207   -2.22694805204034
H          -0.39987921505309   -0.50902245739331   -3.71028162362288
