    23
        -45.37330126  Gyration_radius:  2.31160146331 Dipole_moment: 5.661
 S           0.08274233832011    0.96187973277223   -1.31762875370017
O           1.12020537927915    0.36795543007973   -0.46547130428403
O           0.35677552723962    2.49372156890847   -1.40430524560282
O           0.18127152535205    0.41059654257269   -2.66029908006288
O          -1.23486974685850    0.77480393939434   -0.71806515790551
O          -0.44532357961390   -1.52979619346689    2.31732782734860
H          -1.20571032620728   -1.38226540548654    2.88253006292073
O          -0.78173167229048    2.82302791500062    0.93387570143469
H           0.01109847995047    2.86357266917872   -0.55289189135273
H          -1.34024015485484    2.14591406423938    0.51638521209791
H          -0.22792647826637    2.33112148167005    1.56137304179043
O           0.84198629132258    0.84968500589200    2.03552505440958
H           1.72312441467876    0.94436041189969    2.40130994876570
H           0.96921918259897    0.66731025069186    1.06027617832361
H           0.03262751973810   -0.67574041484455    2.27387678553897
O          -1.27116215225446   -1.81374865527245   -0.22448126617146
H          -1.43532486245154   -0.86099890469099   -0.41423085659246
H          -0.12215571050187   -2.03904449434156   -1.12592930647429
H          -0.96685728627787   -1.83238801278513    0.71207457267256
N           0.74145819529484   -1.95173670339743   -1.80829206648953
H           0.86724225042935   -2.75378928089633   -2.41694396409571
H           1.56603337216613   -1.75539696009375   -1.24347795901801
H           0.53751750320587   -1.03904396702175   -2.34253753355992
