    23
        -45.37330136  Gyration_radius:  2.31153934488 Dipole_moment: 5.660
 S          -0.79495099703407    1.35952926950914   -0.43128708594267
O           0.63281434639108    1.06870461739875   -0.25167471439087
O          -1.13674456390801    2.61540980338027    0.42588001441779
O          -1.05413923793428    1.68249048040865   -1.82585011309587
O          -1.60467848383662    0.24810117397292    0.05826351684833
O           1.08755273274628   -2.43506760786484    0.89248177444918
H           0.61618897407254   -3.00524223263888    1.50248558926711
O          -1.28268933124466    1.10855713528921    2.56556377153727
H          -1.21992278521220    2.27694437865374    1.35316636747625
H          -1.68435538108184    0.54785911197725    1.88084089294972
H          -0.38987478033400    0.74685121073792    2.68610333138410
O           1.22572325226501    0.03754843836506    2.01738663391909
H           2.08429237530901    0.38438360432633    2.26571868310242
H           1.00851403387510    0.45285723493897    1.13357711522784
H           1.17337759246759   -1.56773261492297    1.33981159810903
O          -0.52556032138069   -1.82060683506796   -1.16720750255981
H          -1.07608837597316   -1.14780045067865   -0.70366068875910
H           0.16548317083011   -0.93746565965827   -2.12974828850383
H           0.11278005007201   -2.13282135928568   -0.48517678854769
N           0.59251043094106   -0.09217472482246   -2.69727813597364
H          -0.11477238544926    0.70061631859045   -2.52054124585785
H           0.73669828268196   -0.28928275489460   -3.68222703435536
H           1.44784141172862    0.19834146229204   -2.22662768070127
