    23
        -45.37330142  Gyration_radius:  2.31149123021 Dipole_moment: 5.657
 S          -0.26022841886897    1.44758531212243   -0.70768666210988
O           0.96819422643209    0.68977644873619   -0.43935485690009
O          -0.07486504244382    2.87906206851225   -0.12004674416693
O          -0.45085292611501    1.57249025037092   -2.14448307552506
O          -1.39620076298344    0.82863896562823   -0.03184337892570
O           0.15914946428527   -2.44632511092588    1.37823753746979
H          -0.45831233260362   -2.67405989167257    2.07556480170130
O          -0.66096322616096    1.96958607618722    2.26736435156466
H          -1.27274345009535    1.47723063138152    1.69469777581276
H           0.04191375956818    1.33419630179355    2.47888619521769
H          -0.23215719270402    2.77834816915006    0.85282996751440
O           1.25092052401872   -0.03409317117024    2.00201239943362
H           0.57934842704327   -1.60399042007372    1.64943951779281
H           2.18785874890514    0.01158592894648    2.19997039603996
H           1.15863879484459    0.25538165662052    1.04895817947487
O          -1.21250357192416   -1.68462900427690   -0.80413721762746
H          -1.45454237013257   -0.78121806970926   -0.49447269539197
H          -0.29336787266279   -1.31907595418822   -1.90267569892259
H          -0.70136231429548   -2.07462961631504   -0.05804796176653
N           0.38551325219886   -0.81519092853010   -2.61251497266965
H           0.02755715287660    0.20068324939234   -2.61108539744708
H           0.39957263225851   -1.23473103202787   -3.53633405000818
H           1.30943250855815   -0.77662186995879   -2.18527840055933
