    23
        -45.35981436  Gyration_radius:  2.32612004181 Dipole_moment: 5.670
 S          -1.10289153031767    1.72734658140583   -0.64068234819537
O          -1.68491387636403    2.73813036267998   -1.43835136410528
O          -0.85169842500766    2.21260948875345    0.81640717385505
O          -1.79831609875583    0.46333842899844   -0.56493931986837
O           0.34475112649297    1.45630700771138   -1.14635898943124
O           0.36547005337067   -1.34358585322636    1.77827632308378
H           0.70865213670513   -2.12467480455983    2.21349226629044
O          -1.81138639589351    0.24307863488868    2.10931038203484
H          -1.06131767120407   -0.37949916573156    2.18834404690850
H          -1.24934824374692    1.51236560082546    1.43479571706277
H          -2.28263494966694   -0.02253982375766    1.30651738919604
O           1.65515250451927    0.85030404582723    0.97697412497810
H           1.27502244766674    0.01227746710606    1.32585338310443
H           0.91438924681332    1.19593187043895   -0.35553557062588
H           1.36653378655822    1.55168639906506    1.56757342329733
O          -0.46923976098163   -1.89068251199805   -0.57945474294620
H          -1.08031399183419   -1.14155458411505   -0.69858548769802
H           0.25514063566046   -1.73208034067659   -1.22983023207386
H           0.05070299828869   -1.63969592322907    0.86014051558700
N           1.45647896862290   -1.07536240722863   -2.31921717312115
H           1.17218403252587   -0.10091876819653   -2.29539745609995
H           1.40165492632294   -1.39413092010629   -3.27828938864562
H           2.42592809022555   -1.11865080487414   -2.03104265258881
