    23
        -45.37330138  Gyration_radius:  2.31146465835 Dipole_moment: 5.659
 S          -1.08027289337557    0.96763828328581   -0.74985193291865
O           0.35668488533915    0.75022953114653   -0.95747272716696
O          -1.52030933955252    0.31238195522339    0.47798362044101
O          -1.31128383711471    2.49994354926702   -0.58450516497281
O          -1.81414207730827    0.52617456237703   -1.92573784141382
O           1.65794708205199   -1.65474951028213    1.55610549951179
H           1.49346311012944   -1.79971874301460    2.48958272411162
O          -0.54812845488261    2.34001822551273    1.91781765626862
H           0.37958990349446    2.05579946572430    1.88477647600152
H          -1.04527592413125    2.69899853884956    0.34882134547394
H          -1.05977173234082    1.52248643591878    1.79747745576043
O           1.78439504222321    1.03205560037008    1.15095742995326
H           2.61692591993109    1.41899975697572    0.87476524978453
H           1.23923179715934    0.93350056060067    0.31800104661651
H           1.75401315831890   -0.68649548212537    1.44232061493186
O          -0.59668763079624   -2.13704426027136    0.17506022914385
H          -0.38524878750001   -1.91830652452477   -1.27089671472333
H           0.26360312480122   -2.07481465298745    0.65058945084924
H          -1.06343953841641   -1.29748974486265    0.39423916124894
N          -0.28962226705194   -1.51376977992925   -2.29385508942292
H           0.61886835896803   -1.05849961544782   -2.36476240817981
H          -1.01171011810867   -0.71495112468727   -2.30735783147981
H          -0.43882976183389   -2.20238701711725   -3.02405824981104
