    23
        -45.37330131  Gyration_radius:  2.3114884257 Dipole_moment: 5.661
 S           0.07329262719533    0.68209552791468   -1.48149560952121
O          -0.27764997038305   -0.06053734895148   -2.68221153901609
O           1.05330753268538   -0.08241912119616   -0.70016963577774
O           0.75014152918058    2.01569203831248   -1.92007111485069
O          -1.08390436364084    1.01586432967536   -0.65701014095312
O          -0.36165808674715   -0.95346197988024    2.62039785622051
H          -0.91034391071582   -0.49148504729526    3.25673184480216
O           0.27480331035615    3.03042907361270    0.44957600852079
H           0.71198614691578    2.59706301506146   -1.11888528154077
H          -0.52960327114337    2.51457028715456    0.27214603481959
H           0.78466483612928    2.48408490373563    1.06929534366256
O           1.46037451835352    0.82414063859286    1.66121143314793
H           2.38851577779211    0.68528102906844    1.85720648111740
H           1.32049491084816    0.46938345990643    0.73640109380048
H           0.31907344371848   -0.31187311816114    2.32929206275502
O          -1.75429048733223   -1.32507319836402    0.35192014644343
H          -1.27634299073026   -1.30378785430895    1.21284407673363
H          -1.67522691594238   -0.40811768592296    0.00037735985627
H          -0.93630113137841   -2.03485327184735   -0.65417948195799
N          -0.24863458196893   -2.32803800964858   -1.46646663414699
H           0.69764106476812   -2.32525443477648   -1.08928291449878
H          -0.29140547416317   -1.48584931092847   -2.13632467975344
H          -0.48893449379906   -3.20785392174325   -1.91130271986353
