    23
        -45.37330121  Gyration_radius:  2.31159761991 Dipole_moment: 5.664
 S          -1.17817650562954    0.95675445084332   -0.60424288021818
O          -0.36206067695559    1.51261646716874    0.47069513157125
O          -0.87105732236812   -0.46621160096244   -0.79464466306007
O          -2.67309201860260    1.06854394197715   -0.17782618523831
O          -1.01637888365573    1.66275057948640   -1.86586462688095
O           2.04574857187889   -1.43353738978419    1.29164082046794
H           2.33756018391408   -1.21290082051947    2.17790972791177
O          -2.01099505523982    0.45024727340948    2.28214423743756
H          -1.65325563340673   -0.45089373129402    2.23352347946162
H          -1.27702479794530    1.02119208171704    1.99935181948287
H          -2.68227056042833    0.83480125576715    0.78469287168510
O           2.07182499526158    0.78239724639277   -0.22883030429389
H           1.24415154674154    1.18799860168513    0.11922050860466
H           2.17191680259091   -0.05486850417320    0.28018678612882
H           1.62459517684346    0.47772154671593   -1.60413904836626
O          -0.64782693445645   -1.80205622010879    1.38028686861709
H          -0.99989939901659   -2.67691828661752    1.20781715220014
H           1.08530918254260   -1.61495631695272    1.35713252219535
H          -0.74651566892201   -1.29426044873795    0.52417876967771
N           1.05792403671915    0.29457157127536   -2.53380782979672
H           0.20719492157230    0.94705329898024   -2.43209251957869
H           0.68015897727609   -0.65030914142538   -2.48698472186857
H           1.59216907128448    0.46026415515648   -3.38034791613849
