    23
        -45.37330142  Gyration_radius:  2.31143563524 Dipole_moment: 5.659
 S          -0.40869476247952    1.36192566312725   -0.80062823023941
O           0.43839369111488    1.91877803895759   -1.84402142494977
O          -1.77677762715634    2.10741759790781   -0.84193239990940
O          -0.66243816246280   -0.05697778107557   -1.07890620633310
O           0.15077359385151    1.52457903154012    0.53765619142561
O           0.72005607299991   -2.15694262114511    1.65436164491684
H           0.76068723818540   -2.06909582716925    2.60831369005568
O          -2.28940325360855    1.29199237685296    1.59598364442027
H          -2.20150364643060    1.91123196324774    0.03122200208433
H          -2.33687143344451    0.32413792546399    1.53718286058794
H          -1.33840014426513    1.48941450591907    1.63167303375813
O           2.15552648027513   -0.18615258879818    0.52322425229947
H           1.72931497319323   -0.97965841316246    0.92160419771728
H           2.11227571571088   -0.28230277849267   -0.95104248640537
H           1.50127347420231    0.53898351963327    0.65287361151162
O          -1.74798660237670   -1.33556705009148    0.85793110708498
H          -2.34488318767838   -1.97729061539681    0.46931975828497
H          -0.19158416314103   -1.90888483645785    1.39549334343153
H          -1.33762130733648   -0.84375791180432    0.08962915688171
N           1.86861046429984   -0.21228066043092   -2.02554109997021
H           2.67434822023697   -0.29812749553383   -2.63637728194470
H           1.37632884557584    0.74271562125582   -2.10094225239766
H           1.14857553072734   -0.90413768435456   -2.22707710231036
