    23
        -45.35981436  Gyration_radius:  2.32613292017 Dipole_moment: 5.669
 S           0.94077232821402    1.83452656068525    0.59965935433943
O          -0.40355005244232    2.07761464236652    1.34489607099394
O           0.63549609814064    1.65031049306409   -0.80032301371393
O           1.90736256177161    2.81190510563079    0.92695295796913
O           1.39190255519561    0.46322763486734    1.18348421172940
O          -1.99164790383920   -0.89656506609791   -0.57525189713729
H          -2.56042693128545   -1.58637801987909   -0.91867708529773
O          -2.03446826414214    1.81707741274075   -0.59005949143106
H          -2.22332306563766    0.85786015554774   -0.61631004381237
H          -1.13959762884853    2.04710516484024    0.64621224691888
H          -1.29422437262297    1.95022804139202   -1.19951491920693
O           0.22584043143204   -0.80620808153914   -1.85187742918311
H          -1.14319544078221   -0.91869153009350   -1.13147291442457
H           0.47743464528044    0.11255506411616   -1.64844105724076
H           0.89592442488561   -1.36078368534628   -1.38680336934267
O          -0.80316243099303   -0.71414367968700    1.80648149797594
H          -1.29898795054835   -0.86917839668314    0.97063899322467
H           0.56820780936765   -0.06093601147834    1.43732974105465
H          -1.25750173138544   -0.00503775207554    2.26993652727867
N           2.08950896018237   -2.04855294961822   -0.30803915256934
H           2.24152260662581   -1.24232739517703    0.29012619337631
H           2.97491383043941   -2.29534838900198   -0.73180513257129
H           1.80119951099101   -2.81825931856973    0.28285771107104
