    23
        -45.37330136  Gyration_radius:  2.31152714197 Dipole_moment: 5.658
 S           0.87275158695668    1.34606428333150   -0.30400766968280
O           1.86953487648315    1.38696166657484   -1.36279394333875
O           0.64463645150963    2.80299471749786    0.19990556151563
O          -0.39980265239968    0.85440344289615   -0.84644524515644
O           1.28448772652229    0.53547797257634    0.83794950804294
O          -1.35449828385217   -2.32401538043799    0.81999492811090
H          -1.30089120376810   -2.64890060285469    1.72054534817425
O          -2.15295772404093    0.27427857502829    0.92943804446857
H          -3.00776104628891    0.51152974600941    0.56584927021220
H          -1.69540261997733   -1.40758952219184    0.87978133717843
H          -1.48179593631728    0.51100525384719    0.22632084622175
O          -0.41623434792560    1.86814842434471    2.40678283942017
H           0.19529713236586    2.70270077175488    1.07706348324342
H          -1.21329139405063    1.39059595924928    2.12556165360814
H           0.31317923457518    1.24784673790758    2.24007567350243
O           1.12939809275138   -1.91436637826201   -0.12110265896418
H           1.08784037578676   -1.40848798139519   -1.50904676186761
H           1.30744018530894   -1.06738043168272    0.34960573337610
H           0.22330202954528   -2.17291253703548    0.16561608254077
N           1.04059556978109   -0.80238329557349   -2.43067053158236
H           1.48254090303570   -1.23893168855164   -3.23303562355151
H           1.50809801120076    0.12237292195898   -2.13733348540522
H           0.06353303279838   -0.56941265499243   -2.60005440007047
