    23
        -45.37330135  Gyration_radius:  2.31162530353 Dipole_moment: 5.665
 S           0.92361885885747    1.22629196834695   -0.55630015576649
O           1.26981312634321    1.34360301988886   -1.96435085836807
O           1.61673370506037    0.13043334434159    0.11386735381378
O           1.32955637916685    2.55411944722952    0.15183799984629
O          -0.52977713023211    1.07094276570984   -0.41930685771724
O          -1.32376679461819   -2.20729896189780    1.13403225101650
H          -0.92898892415906   -2.72654602158819    1.83679713703153
O          -1.30744109054897    0.39479940851575    1.92654589946686
H          -2.14406544533742    0.83669248644852    2.08127102072769
H          -1.35817110048562   -1.28489723683216    1.46210891934555
H          -1.01723249084590    0.67277471453600    1.01052921235685
O           1.25540180177879    1.33247049833989    2.47031786276768
H           1.34340882293894    2.33444228047066    1.11755925384242
H           0.33129755604865    1.05905465538091    2.58725035461743
H           1.63880886474476    0.65820784286012    1.88464701875720
O           0.42409690921004   -1.99185717902271   -0.89625877591756
H          -0.14824549589669   -1.19220516788515   -1.99962334042579
H           1.00755776174297   -1.30838007994795   -0.49248491590486
H          -0.26727096664102   -2.16256649629139   -0.21585595367921
N          -0.47816098793405   -0.39852953221127   -2.69247643638699
H          -1.32666989284087    0.01555490455788   -2.31011747306742
H          -0.59415451245104   -0.71139252295996   -3.65077682897993
H           0.28365105607772    0.35428586202160   -2.57921267737502
