    23
        -45.37330136  Gyration_radius:  2.31158700334 Dipole_moment: 5.661
 S          -0.17996927531365    1.61357392663165   -0.17526970409999
O          -0.46249321172611    2.69704797374158    0.90888743265296
O           1.17828818939606    1.11908088154279    0.02760819285578
O          -1.15110843627775    0.52847796790663    0.01109539259089
O          -0.37561385041789    2.22279104694047   -1.48170933885343
O           0.61607122517523   -2.71294525274363    0.41384226422301
H           1.41682931095707   -2.98554114971313    0.86541471043327
O          -0.69171483534772   -0.96769153773195    2.03967968963377
H          -0.88939165951945   -0.38184213879109    1.25337217964946
H          -1.54394688293438   -1.21956095970600    2.39942256292880
H           0.13518243779522   -2.13046138428677    1.03763640944345
O           0.84466263540086    1.26415405078468    2.67252778519423
H          -0.05513911746888    2.34052492488821    1.73844430432721
H           0.33873243638935    0.44018999443574    2.75960262088587
H           1.37213345849306    1.14418827515495    1.86503973102587
O           1.25233550319423   -0.99136628876172   -1.54925028065904
H           0.04131836349140   -0.54357365554916   -2.26811019861866
H           1.40114918381684   -0.19901597864923   -0.98295968882401
H           1.01733235431644   -1.70894605465269   -0.91677910489335
N          -0.86953395392257   -0.03008454112621   -2.62268176569409
H          -1.65135756175666   -0.35814590520944   -2.05809436772875
H          -1.03733392074273   -0.13116352222897   -3.61834009909748
H          -0.70643239298979    0.99030932711815   -2.31937871737453
