    23
        -45.37330143  Gyration_radius:  2.31148084036 Dipole_moment: 5.657
 S           0.29598137223542    1.60429147718549    0.04780399769430
O          -0.28817717544209    2.51854683882745   -0.92134760513001
O           0.96090176838692    0.50108402933869   -0.65649411689881
O           1.38332019346080    2.38184774778486    0.84906919113111
O          -0.67796374849665    1.08347223458289    1.00203817507179
O          -0.65665609243798   -2.72592393752425    0.21459268158309
H          -1.01503069767392   -3.09663712365867    1.02302102708269
O           1.28522996896050    0.56515598954150    2.73594902135966
H           1.54624254731551    1.83320292075347    1.65767088088735
H           0.35335558988240    0.65274367003307    2.47404180072406
H           1.58208720123441   -0.25756967961114    2.31466073385816
O           1.65884589036948   -1.44833863841625    0.85250101550361
H           0.20101770210510   -2.31935209877593    0.45690636873341
H           2.48526595771483   -1.78832085813303    0.50527094756878
H           1.40426599509323   -0.68710127390085    0.25560267845224
O          -2.09758620522205   -0.56703715916766   -0.48351612818516
H          -1.63853401380391   -1.42069169022242   -0.30872239490271
H          -1.71411091424692    0.06047943002021    0.17207750489954
H          -1.57122549957745    0.03818925329912   -1.72506642493278
N          -1.02663670432390    0.61809678476580   -2.49051788617344
H          -0.78282276577214    1.53178750633158   -1.97488331981153
H          -1.55313165283885    0.76737842822619   -3.34504831475054
H          -0.13463870692647    0.15469612871221   -2.65560983376495
