    23
        -45.37330142  Gyration_radius:  2.31145708767 Dipole_moment: 5.659
 S           0.50699350123114    1.53743160702425    0.20792308098805
O           0.10073143706321    2.56890155870648    1.30335882996481
O           1.29560372636449    0.48953997178742    0.84850983272593
O          -0.72543057330329    0.97521868808977   -0.35803843356828
O           1.23875176010607    2.24779619124620   -0.82946976556544
O          -0.66886744644741   -2.72924004148090   -0.10761541370829
H          -0.36839360908486   -3.34871521930845    0.55972773876048
O          -1.92933131078932   -0.68788734371075    1.17461807305718
H          -1.16599691158653   -2.03301922803203    0.36960634598074
H          -1.47612326900340   -0.02930380892570    0.57338018146969
H          -2.86993835820454   -0.56536969145950    1.03541959974037
O          -0.27902407722829    0.60831797419678    3.00143626381701
H          -1.00590901942068    0.08402276194287    2.62834853649476
H           0.50908546849760    0.31876550601900    2.51182226829386
H          -0.13038886307416    2.02206323190642    2.09632575800811
O           1.43776488560801   -1.34436616958212   -1.03912873739303
H           0.67910677044359   -1.92394001051044   -0.79703788835289
H           1.01467169346122   -0.37134164062553   -2.06828977460233
H           1.53655151950741   -0.73124995060222   -0.27430072383411
N           0.66158166506370    0.50780061581084   -2.63496931252716
H           0.98546269933095    1.33492815981715   -2.02602915876625
H          -0.35593315054605    0.51986225006291   -2.58817924353683
H           1.00903147201163    0.54978457762400   -3.58741804744849
