    23
        -45.37330143  Gyration_radius:  2.31165923329 Dipole_moment: 5.659
 S          -0.08195503446778    1.61520184817242    0.22026504743400
O          -1.08902118839352    0.62347268106839   -0.17647180227260
O           1.24855741520158    1.01498189600653    0.22197015717735
O          -0.09189504919107    2.75576283574583   -0.84184122459423
O          -0.44769571931856    2.19338459325888    1.50419223382814
O           0.46556631409073   -2.73877809746661   -0.43791986700215
H           1.30780740376944   -3.06140903839789   -0.76346746935631
O           0.89142478567031   -1.14735286970238    1.68583690584187
H           0.71184474826131   -1.81989205765657    0.98912309245493
H           1.19493647888099   -0.35126824325772    1.19108827785763
H          -0.38519135787477   -0.62346583897990    2.21531226446210
O          -0.41000789141588   -0.83377650368265   -2.17148283581243
H          -1.20621911670647   -1.00175798945152   -2.67838749237722
H          -0.69223922552412   -0.26139660321275   -1.40120282092675
H           0.14336511341229   -2.09604494417646   -1.10331399997959
O           1.38034558662493    1.28028885489715   -2.43152400221350
H           0.83382005592900    0.50595069584195   -2.64170431481450
H           0.42158113460248    2.39536540108418   -1.60845133579684
H           1.75244508293970    1.08773179244830   -1.55453151034890
N          -1.29972955143198   -0.04706938506189    2.43922936043549
H          -1.63847734612031   -0.16614933068636    3.38830715544871
H          -1.99996968222555   -0.28936171607810    1.74034414216545
H          -1.00929297672523    0.96558200929167    2.21463003838578
