    23
        -45.37330142  Gyration_radius:  2.31147308453 Dipole_moment: 5.660
 S          -1.53364863038682    0.49217684087092    0.26412957499311
O          -0.55008198985329    1.52841364805673   -0.03464039229890
O          -0.86944982825166   -0.80396951306580    0.44900985112305
O          -2.23061729504589    0.86597988192919    1.60708218289356
O          -2.56194223118619    0.37075083217654   -0.75771370268629
O           2.73011052678230   -0.52863106757245   -0.41808873878258
H           3.40077669680715    0.14260541496260   -0.27997812121611
O           0.06325467192290    1.70592428324751    2.55788545866773
H          -1.50359977982669    1.20959441817870    2.18554336766952
H           0.63250519103960    0.92001578197506    2.58496067037906
H           0.09436736162627    2.00005056785250    1.63205341994039
O           0.81130963957784    0.45762548467738   -2.02094041775030
H           0.35464631983778    1.01348264489264   -1.34775601461502
H           1.56147765952928    0.04404961433769   -1.53488558238743
H          -0.24666362607228   -0.54714598594720   -2.25465638773600
O           1.26308836400253   -0.70717248608793    1.86577436124357
H           1.29681365765908   -1.51886014502643    2.37485267998130
H           2.25066151761749   -0.61512376078658    0.43177845927406
H           0.42417408529228   -0.75971310643727    1.32347720601972
N          -1.13685661090688   -1.19926360517562   -2.21561689257406
H          -1.87327613935091   -0.57583630918907   -1.73743967146411
H          -0.94479856529507   -1.94841184482412   -1.55270761360030
H          -1.43225100550847   -1.54654159905076   -3.12212370707215
