    23
        -45.37330133  Gyration_radius:  2.31153105928 Dipole_moment: 5.658
 S          -1.30924207532235    0.96624173549172    0.10824453176302
O          -0.32868285641154    1.29801701373876   -0.92073883321242
O          -0.98156975833606   -0.32274842482300    0.72953850295465
O          -1.42268145033431    1.98766678260813    1.13799588416124
O          -2.69893266061198    0.82242759145272   -0.58269043789955
O           2.31231183303468   -1.52526942731754   -0.48618777325813
H           2.75462151230188   -1.51069684734219   -1.33675620642181
O          -0.29785558104291   -2.15180438205462   -0.92929451433023
H           1.39049617466419   -1.80600175688487   -0.66226650842729
H          -0.63913274218505   -2.98034604356613   -0.58845157198794
H          -0.57713208915131   -1.45059175707243   -0.27288026211978
O           1.95322205447332    0.99940047403584    0.36363328098276
H           2.18411055383566    0.07199148307206    0.12575784617335
H           1.19153135156224    1.22362451250064   -0.21962333449925
H           1.26545415952526    1.02494753586268    1.67159597642718
O          -1.55446474611263   -0.34522265418730   -2.63150617302946
H          -1.17539399686721   -1.16609107919407   -2.27803327978685
H          -2.51385015653471    0.34941953717749   -1.43318205785337
H          -0.91292099892931    0.34458784378600   -2.39234199714565
N           0.54157599045826    1.04263508139336    2.50488897857420
H           0.89757462760697    1.47892084423001    3.34892374036135
H           0.22340404589390    0.08805361645416    2.66209155090256
H          -0.30244320153539    1.56083833061961    2.08128263768614
