    23
        -45.37330135  Gyration_radius:  2.31156788338 Dipole_moment: 5.661
 S          -0.64623818591987    1.46611614154959    0.31544985089231
O          -1.51478350706666    2.13897506411279   -0.63802295628876
O           0.59604432346285    1.06026421856871   -0.35342640614603
O          -0.27395748038372    2.48719366294649    1.43245185924786
O          -1.27912550054863    0.31518657552696    0.95218190849918
O           0.93435173571605   -2.63739318125198   -0.28556870294953
H           0.74523348144677   -3.31355799024431    0.36749434517601
O           0.41919409367600    0.50663141325935    3.00355607775376
H           1.16823096975985    0.07708878105859    2.55983485595399
H           0.06592327560276    1.93457546615808    2.18099897387165
H          -0.36708943479263    0.15735323067171    2.55138103736596
O           2.06449158492865   -0.53226971361911    1.01482707547502
H           1.50670591588634    0.10047725575396    0.47712688739052
H           1.38948114788771   -1.91434635872205    0.19367072365192
H           2.97606296683927   -0.30505464097567    0.82365612548349
O          -1.36086803069408   -1.44174737767540   -1.01053174718839
H          -1.10944047376916   -0.38761862532149   -2.01515811227730
H          -0.53252715117572   -1.94853264110549   -0.84597634630104
H          -1.46929016812810   -0.87525182773109   -0.21179602149424
N          -0.88651176915406    0.54682075907297   -2.55942011028550
H          -1.25126646394991    1.30915539010954   -1.89191691782350
H          -1.29990292217496    0.59237551489407   -3.48503442326166
H           0.12528160256390    0.66355889296179   -2.57577798674441
