    23
        -45.37330145  Gyration_radius:  2.31151859588 Dipole_moment: 5.658
 S           0.53000095592763    1.43310501199696   -0.57393330637082
O           0.70533725842480    2.78949651814101    0.17341280028068
O          -0.81648739049031    0.92854933062739   -0.27813861494501
O           0.65192712381206    1.68693847668499   -2.00117032961527
O           1.54056308459721    0.50874255747042   -0.06914426549300
O          -0.61081487482466   -2.50370345180650    1.12642027229923
H          -0.01521656606254   -2.93944689472602    1.73862057212130
O          -1.09775790709601   -0.00711625198853    2.09037149948998
H          -0.81576582957897   -1.63004420137328    1.51935039058454
H          -1.00405975244070    0.36854528044755    1.16803053780940
H          -1.98652935919102    0.21367984655880    2.37400641635851
O           0.75324190378245   -1.79508410831345   -1.07818111364910
H           1.20944444923465   -1.00836810581713   -0.69920539026862
H           0.21664110907959   -2.15384802359779   -0.33422711009073
H          -0.12892141291310   -1.11186322171751   -2.04737150553445
O           1.22539153574658    1.49409172376746    2.39216591651102
H           1.67406950918186    0.95535473218181    1.71902771290233
H           0.89821743967843    2.54079895513287    1.11268402325980
H           0.41362050570912    1.00312313428371    2.59812421697716
N          -0.72207701779231   -0.39287883882098   -2.63908091052721
H          -1.58608396867674   -0.20998457173712   -2.13152749721946
H          -0.88654190893825   -0.68545537799278   -3.59668720519804
H          -0.14819886716936    0.51536748059392   -2.56354709968108
