    23
        -45.37330126  Gyration_radius:  2.3115877701 Dipole_moment: 5.663
 S           0.76799056380980    1.42635469676696   -0.20984120496832
O           1.34221591168206    1.80264354683179   -1.49238983830032
O           1.51411013934508    0.36679371568328    0.46175643823402
O           0.78412959274691    2.68256451519671    0.71249944459248
O          -0.63167763954669    1.02511769434991   -0.39703929437193
O          -1.08006356467765   -2.53177763033019    0.57601001351095
H          -0.73474732533701   -3.08003743072115    1.28277669303687
O          -1.69257458506273   -0.10567524373128    1.64261669460546
H          -1.34419395827356   -1.68477009129826    0.99138195020603
H          -1.29382161015985    0.34748107572689    0.84499949093697
H          -2.61080012612480    0.16880633490878    1.66790032221932
O           0.50609252410733    1.13674375245566    2.81139674885901
H           0.65799589574741    2.32818137665355    1.62881102439090
H          -0.35697462914738    0.70615658269509    2.70131487472245
H           1.10935136138222    0.62527406162622    2.24645771829287
O           0.94513273932372   -1.74643916408108   -1.00670569418672
H           0.18309671739870   -2.12308553541429   -0.50919746047249
H           0.44903540258267   -0.89373906110969   -2.10712440846652
H           1.30652299010341   -1.04578902625142   -0.41576771780590
N           0.11178133977928   -0.06882022235846   -2.75879961922898
H           0.68794365116932    0.77010114196895   -2.40633998607323
H          -0.85376978257548    0.14540951771781   -2.51526702564295
H           0.23322440172516   -0.25149459728928   -3.74944916408695
