    23
        -45.37330140  Gyration_radius:  2.31157132061 Dipole_moment: 5.660
 S           0.87310627282588    1.02435129309295   -0.92359554249422
O          -0.07137575580812   -0.04691946212450   -1.26353420125794
O           2.19990319171580    0.67452695519520   -1.40696831720798
O           0.41527823393598    2.31626762192991   -1.66522593379281
O           0.83979115687383    1.29438599019327    0.51045422795386
O          -1.48211420858802   -1.53458175698642    1.83293259932755
H          -1.76880073238979   -1.17641177689465    2.67482690616593
O          -1.38314758487975    2.73976607837099    0.19401455104766
H          -0.33486218732542    2.66985758500805   -1.12341211502934
H          -1.99148466396249    1.98521951301441    0.13877438928128
H          -0.62437001409305    2.40680774632682    0.70192738560232
O           1.15603661356821   -1.10930540151197    1.54370366716184
H           0.21956792269667   -1.37840176049028    1.68739061556867
H           1.63679020839070   -1.64315989980097    0.25235707886157
H           1.10740166415242   -0.15321143139957    1.31070902068344
O          -2.35358993833197    0.15074192732598   -0.11626588694616
H          -1.85217504006082   -0.94416438293700    1.14438146703929
H          -1.47151852739766    0.07076911597120   -0.58132804127076
H          -3.00852155466034   -0.16564892487068   -0.74082299013014
N           1.92953263125768   -1.81096941247644   -0.79895532980825
H           1.08779369771565   -2.04285188619021   -1.32349212209016
H           2.66454858953338   -2.50060517305958   -0.91605018823607
H           2.21221003482923   -0.82646255770394   -1.13182126042823
