    23
        -45.36514206  Gyration_radius:  2.28501984332 Dipole_moment: 7.085
 S          -0.30250050265751    1.82129504676366   -0.62389450279133
O          -0.27221969767109    2.92858421679377   -1.51375001955494
O          -1.45804229018241    2.01032021267822    0.41867827034325
O          -0.55262442242169    0.53251624546375   -1.28534843551016
O           0.94576176144624    1.68094851180425    0.18577712262439
O          -0.69740225176771   -1.98705067919248    1.19284169173151
H          -1.04708290417063   -2.74879937307253    1.65689907503976
O          -2.56348874176451   -0.64879095092170   -0.09459016339958
H          -3.02590512497399    0.05449397279864    0.36740720058685
H          -1.90659408928670   -0.18969186782136   -0.66854742819209
H          -1.46783074573026   -1.56736943807663    0.72403018141246
O           0.72533568884737   -1.76781802141421   -1.14067355522988
H           1.90249105507534   -0.80971244319737   -1.01804414738379
H           0.36684254841957   -2.04514421780535   -0.27756893831626
H           0.12615885851830   -1.03820908538473   -1.41155883330694
O          -0.27857169967573    0.54708707214514    2.23630923882097
H           0.45593703270550    0.91953217049365    1.71851561241462
H          -1.16367229175554    1.49613802673643    1.21071409574624
H          -0.34244294381642   -0.39239429782559    1.99150394502725
N           2.53290119580569    0.07063685600782   -0.94419049242099
H           1.88094320271194    0.82654462080421   -0.45322474183278
H           2.77042814842981    0.40375943160697   -1.87311900984418
H           3.37157821391499   -0.09687599938487   -0.39816616596474
