    23
        -45.37164076  Gyration_radius:  2.3805713978 Dipole_moment: 5.946
 S          -0.69931631998261    1.14358964588412   -0.55579762895507
O          -1.54599667150000    0.31660957979992    0.30768509798323
O           0.19264788195704    0.31420324254736   -1.35914432971268
O          -1.69359902018693    1.84662440850590   -1.54815934517219
O           0.01623082947084    2.17069862447104    0.17477522416672
O           1.76937929882620   -1.27041862649505    1.86521964600577
H           2.65966658737061   -0.99842023671382    2.09261328772433
O           0.62410390312159    2.81714618398162   -2.39101516017753
H           0.73378688880832    3.04259368680358   -1.45646564011978
H           0.86949058649443    1.88387084687348   -2.44321865585777
H          -1.09408548205116    2.39012570337151   -2.09413412803087
O           1.14342410626081   -2.01067864313063   -0.60800932416563
H          -0.23665856472302   -2.28391940932652   -0.27078564817563
H           0.95877774553368   -1.13410562368672   -1.01796154913795
H           1.51800794809352   -1.80193400547640    0.28012580143739
O           0.21146504695582    0.81070008809080    2.43285951817146
H           1.18804181116345   -0.50944816389995    2.10873064455714
H           0.27788646242131    1.43699845180864    1.68288481328624
H          -0.71186405422314    0.54399006571051    2.41922050667243
N          -1.31220892665440   -2.23152428117655    0.02711515656535
H          -1.46957678878880   -2.70042115806176    0.91318952536915
H          -1.91760622234040   -2.60854920101771   -0.69390777782461
H          -1.48199704600462   -1.16773116887418    0.13417996537576
