    23
        -45.37164084  Gyration_radius:  2.38023640311 Dipole_moment: 5.936
 S           0.59659011004516    0.58885888210042   -1.18275984300952
O           0.63789623038327    1.95643421647098   -0.70450092007419
O           1.10398476975487    0.57102341629005   -2.66933855533006
O           1.51277604278385   -0.29543039880433   -0.45819264440334
O          -0.75763587659600    0.04564032147779   -1.18573345621006
O          -0.85800214752424    0.04830019396072    2.73622154551880
H          -1.40912612081870    0.71354652819828    3.15088294155885
O          -1.77103076872007   -1.43175112904697    0.72808029323508
H          -1.59605585658727   -0.83067287994123   -0.03262511315632
H          -0.53581326397989   -2.17144043548593    0.58820071208884
H          -1.58005026040152   -0.88925894406352    1.52930930143046
O           1.26063447804678    1.35262180432515    1.79249008034746
H           1.94290099347270    0.72787435788239    1.53154210695565
H           0.99179119066076    1.76228407399093    0.94456175077221
H          -0.05499032091845    0.52802003541784    2.41793831121169
O          -0.98000106150565    2.19607947986146   -2.87149956177344
H          -1.45203150174889    1.46382594103653   -2.45334363033227
H          -0.54469257945141    2.65192919864877   -2.13736238785335
H           0.47677559795800    1.17474288884148   -3.11091234889599
N           0.51359399377847   -2.50668861715578    0.40150855506041
H           0.54987499681587   -3.25173433098175   -0.28564044178575
H           0.96726108605035   -2.78823931459600    1.26447436035041
H           0.98535027864495   -1.61596527831844    0.00669896416276
