    23
        -45.37164082  Gyration_radius:  2.38032032741 Dipole_moment: 5.942
 S           1.41588318672750   -0.28537126812754    0.12259574614344
O           0.99855405477544   -0.03041277255852   -1.25831006589897
O           0.72090872752952    0.60238465902278    1.04888344239111
O           1.29079398352093   -1.67906080716635    0.50055756878019
O           2.93749212410315    0.10246174395125    0.16622415741554
O          -2.76564411450375   -0.74694804867052   -0.14026527019869
H          -3.23640647034889   -1.31699182955518    0.46936926431353
O          -1.69559738668557    1.54444946481501    0.67192785403946
H          -0.83058208106457    1.22584224596022    1.02003756519431
H          -1.18658870168012    1.87967400531028   -0.63890157157933
H          -2.20721425393974    0.72445207254125    0.47510439386624
O          -0.75443683908215   -2.20837506936602   -1.08826415411870
H          -0.35530812871118   -1.76780411979422   -1.84358793202309
H          -0.04356068872627   -2.19258000361483   -0.41483193081162
H          -2.04064460543589   -1.30185045282648   -0.51825422319427
O           2.53958326185178   -0.64432010063453    2.67795176704014
H           2.17639703332850   -1.43733963015653    2.25896992489392
H           3.17511984675254   -0.08932649950508    1.09332247298437
H           1.81920925084022   -0.00129239950472    2.63949218479230
N          -0.63490782282205    1.92832582144168   -1.60990962043052
H           0.09593690291278    1.13612476205621   -1.51189209042981
H          -0.16635184099836    2.81996167204761   -1.72805050111677
H          -1.25263543835811    1.73799658433292   -2.39216897204946
