    23
        -45.37164083  Gyration_radius:  2.3803357809 Dipole_moment: 5.941
 S          -0.52791174542135   -0.16625416762729   -1.33978869657663
O           0.54494239779942   -1.00707552502520   -0.81906535446745
O          -0.03080650716291    1.07927706815713   -1.88970680843237
O          -1.22544618061994   -0.97113260791882   -2.49447799058868
O          -1.57191041679834    0.03307487538111   -0.33160895136172
O           1.21704074522864    1.51587038297257    2.10903311876749
H           2.01659828537726    2.04069857328761    2.04967392100277
O           1.23237479602170   -0.74079901750392   -3.45936599227934
H           1.09180009740435    0.19722564608779   -3.26794300722044
H           1.48370958336940   -1.12435360364248   -2.60872232326839
H          -0.50321037723401   -1.07373226909131   -3.14305680909358
O          -0.44241717644745    2.52031425401213    0.28773997678414
H          -0.17964901586126    2.14801719499944   -0.57913070966860
H          -1.32777826431489    2.17057500131491    0.42108948011769
H           0.58903136015956    1.91227011282146    1.45720939212182
O           1.26360228010675   -1.10811397766637    1.69942557364678
H           1.19329397986349   -1.13834916091638    0.71709480721100
H           1.38948284435273   -0.15396066451808    1.91545143392151
H          -0.15500302958774   -1.26384614957138    1.93067241384487
N          -1.27158874823348   -1.24319743267027    1.88410798006162
H          -1.46459524469231   -0.73678083476871    0.94724819381738
H          -1.66068667334381   -0.71036808088894    2.65513813820351
H          -1.66087298999498   -2.17935961722855    1.85898220346209
