    23
        -45.37164085  Gyration_radius:  2.38031586752 Dipole_moment: 5.942
 S          -0.26420628424072    0.21333210962409    1.40950171816747
O           0.11726875777560   -1.10737595954590    1.86899777579007
O          -0.62474628055908    1.08662563134093    2.66452605055330
O           0.82444198701079    0.89170479128261    0.71404163359213
O          -1.48015410824996    0.20237299229460    0.59252446710978
O           0.59761432132663   -1.63245121295727   -2.28077835436146
H           1.30429882476353   -2.27531788119428   -2.35520692790182
O           1.11911460980037    0.94253310486961   -1.88993731779539
H           1.05761963074061   -0.01408414274526   -2.12229787293571
H          -0.27677543201105    1.31914927402632   -1.87947426965533
H           1.21930052834985    0.95947104229262   -0.90989617899638
O           1.89295005669370    0.45545602218524    3.20097611968545
H           1.57694703133086   -0.44413939711963    3.03627598467601
H           2.05647255137565    0.81754077855453    2.32007643184422
H           0.20287085935158    1.06023678751968    3.18144591304519
O          -0.87222753845861   -2.41323044383961   -0.20491796503403
H          -0.41356544904769   -2.10731167678558    0.60453916423270
H          -1.70185807639327   -1.92817034096061   -0.18739447454159
H           0.03254996424800   -1.94303598627316   -1.53201214814165
N          -1.35947947979126    1.46854936158659   -1.64575443523867
H          -1.94928200244348    1.01968532808554   -2.33885421510148
H          -1.58941516115800    2.45242131257333   -1.55817014384138
H          -1.46973933039138    0.97603852521158   -0.68821096512781
