    23
        -45.37164086  Gyration_radius:  2.38038476916 Dipole_moment: 5.943
 S          -0.43236578473828    1.34923351356226    0.31085667112276
O           0.83659214650450    2.00750168566463    0.07146102919881
O          -0.91342558895640    0.63294126093879   -0.86571509708837
O          -0.40539125022485    0.47094736169683    1.48309921901788
O          -1.50156087010906    2.44890418106661    0.65051922349951
O           1.98202657824468   -1.99660260091246   -0.55632162065795
H           2.68539290624466   -1.94133388032231   -1.20473802563071
O           2.33742217636372    0.07639432582961    1.07337271417958
H           2.13600484011514   -1.24684182177459    0.06859264389671
H           1.95867969214300    0.86221878697791    0.62816869144339
H           1.78876955892214   -0.02179155580757    1.85646022095709
O          -0.74833515425354    3.21499580083761   -1.77245648970224
H           0.13656940639695    3.15732091150088   -1.38530249658380
H          -0.96690871368097    2.30376053893254   -2.00852482700947
H          -1.48090436201699    3.01283942336413   -0.14599093024426
O          -0.57058715587693   -1.93134610143923   -1.28797956089106
H          -0.71792315536583   -0.95870936599525   -1.34254061042340
H           0.40097074298215   -2.03385814367695   -1.15248282316581
H          -1.05707429104191   -2.05553125800940    0.06820588120405
N          -1.32516317369961   -1.90944845688154    1.14323338907060
H          -0.98485902158018   -0.90139854124655    1.34224453784842
H          -0.83110200704627   -2.56787692059629    1.73663834878372
H          -2.32682750934658   -1.97231913375006    1.28919990117954
