    23
        -45.37164083  Gyration_radius:  2.38033582937 Dipole_moment: 5.942
 S           0.56568763165072   -0.92677097401407   -0.96084056492262
O           0.16845186405137   -1.34707881926352    0.37879543570843
O          -0.43571755055642   -0.03229393657079   -1.54666167838831
O           1.90296227132828   -0.36829308736972   -0.98649805458949
O           0.54905681327194   -2.20773115526559   -1.87007417071350
O           0.03820139445440    2.37961985174445    1.59998017031251
H           0.74205028316572    2.66386852038240    2.18482157363804
O          -1.26435868545088    0.10423539387682    2.02543901833954
H          -0.77400449624069    0.96006907703851    2.02513492806562
H          -2.12376609549885    0.27253830011029    0.87488549182503
H          -0.65783474558386   -0.53587084270081    1.58594428164673
O           2.39097680509658   -2.88314003457613   -0.08772823898259
H           2.77155384254636   -2.02827483548818   -0.33391845603862
H           1.69782771242430   -2.66294163482423    0.54859000473826
H           1.23074985842657   -2.76829552461777   -1.45303287926143
O           1.14714705171452    2.15797043989475   -0.80842772678679
H           0.46479462316111    2.06123718061574   -1.47843552982936
H           0.44266139516492    2.33213899055737    0.69965996037496
H           1.61270356280193    1.29667111758336   -0.83275855618245
N          -2.56035049140190    0.36960956907321   -0.14937079225475
H          -1.71065903111121    0.18070228832516   -0.79267211849658
H          -2.91679072007399    1.30631219322237   -0.30844361245576
H          -3.28134331331635   -0.32428208771785   -0.31438848575593
