    23
        -45.37164084  Gyration_radius:  2.38028151371 Dipole_moment: 5.940
 S          -1.01217557250646   -1.01001169975880   -0.23707132894355
O          -2.26744407767209   -1.61171802606147   -0.96507292426488
O          -0.07151833863016   -0.59880036667163   -1.27397975938659
O          -1.52001720872650    0.15071806893882    0.49841762665372
O          -0.45891972115130   -2.02918698860144    0.63246906189161
O           2.25372995360744    1.09663645399758    1.39339064856866
H           3.07670523962715    0.64766283870973    1.59175113319804
O           1.48370965601078    1.50528060248715   -1.11575478544855
H           1.91633118125316    1.37568684244177   -0.23891791482982
H           1.04718910725166    0.64425177249553   -1.31292590380313
H           0.26348179340601    2.17873264189650   -0.73076863721316
O           0.34246279908068   -0.36771783581129    2.52534939577664
H          -0.48664914065291    0.11855494961820    2.52967920453460
H           0.16163290458084   -1.11886631766239    1.92345114434206
H           1.54837985013046    0.57170078055425    1.84433568127713
O          -0.37230650249048   -3.27726013515363   -1.77682705573923
H           0.07256459511722   -2.46415881549139   -2.05039425798309
H          -0.19076152828593   -3.34328144981355   -0.82865909866074
H          -1.88880100823949   -2.38112642722781   -1.43147482554920
N          -0.74613595277477    2.45806527042525   -0.34114026741617
H          -1.33789293384991    2.83285574238345   -1.07458090717105
H          -0.67263081989280    3.11015828719619    0.43291433375005
H          -1.14093425519477    1.51182380110108    0.00580943641764
