    23
        -45.37164085  Gyration_radius:  2.38035887716 Dipole_moment: 5.943
 S          -1.26502769674677    0.70782001693359   -0.01210659511900
O          -0.80037229485844    1.90371058854511   -0.68647953800265
O          -1.25893346319228   -0.47316403293293   -0.87892721681459
O          -0.53248888037576    0.45064266788711    1.22333461884233
O          -2.77167642331524    0.91720433128581    0.38012824950661
O           2.73031610629551   -0.38974921843136   -0.78613363231007
H           3.43403897068538    0.25993216912728   -0.75577691430943
O           0.84408234246266    0.66084266595109   -2.34118657605755
H           0.19628062378586   -0.01075255970826   -2.57181604021013
H           0.33303708080030    1.28945708332017   -1.79094194499983
H           2.04630221941959   -0.01369179492053   -1.39205272201891
O          -1.63096574544318    2.91894422624641    1.69036388163961
H          -1.24719598593095    3.11007960804379    0.82287454320378
H          -2.73152251849301    1.71205720644159    0.94532735703155
H          -1.07112213981828    2.21894050786366    2.05153025288153
O           1.50239777708854   -1.18820462042549    1.42975663416995
H           0.63026041242910   -2.10296483393885    0.72778143176459
H           2.08783357099982   -0.88183857258107    0.69743605736297
H           0.82390001951237   -0.48006055075331    1.52492198697181
N          -0.14547288113592   -2.58547370497096    0.08374222778303
H          -0.67370351474653   -1.73794967942478   -0.33353226996722
H          -0.78156981316819   -3.15580632004221    0.63024728351662
H           0.28160223373514   -3.12997516350961   -0.65849109487415
