    23
        -45.37164084  Gyration_radius:  2.38049081886 Dipole_moment: 5.946
 S          -0.63607422328312    1.30352295305816   -0.02925320426181
O          -1.22529644790462    2.57332958426992   -0.74212142936427
O           0.69207915684222    1.07580086711507   -0.58871217652059
O          -0.59412282451917    1.56092015010947    1.39649930236039
O          -1.54694191211569    0.21223799133713   -0.38359661931198
O           1.01028798075192   -2.33511495270964    1.32386928535778
H           1.61140315632675   -2.35789477441568    2.06979526596350
O          -1.09608516812756   -0.92658485070342    2.13598739700913
H          -1.82003723832108   -1.02700037111028    1.51170754480403
H           0.21390442990363   -1.84176309086169    1.63815245455170
H          -0.85929878523086    0.02052030849925    2.05824117148026
O           0.91011096613825    3.60797654117374    0.43887171569848
H          -0.59890013609408    3.27245521943864   -0.47421699349550
H           0.53485737218694    3.18261212871407    1.22277067457416
H           1.37332725589853    2.89588066436465   -0.02187784405798
O           1.74633754209197   -1.28813391444366   -1.00386932787113
H           0.47431202195740   -1.56613243817382   -1.63370687449725
H           1.55469769320369   -0.33538608240710   -0.84210878240931
H           1.62444008160660   -1.72410621643388   -0.12764481492193
N          -0.59785239534387   -1.59967542923001   -1.94682305340941
H          -1.05200831793150   -0.82958632173532   -1.33660570166879
H          -1.01282652569496   -2.50142742241490   -1.73608414449962
H          -0.70631370233662   -1.37245055345087   -2.92927383550477
