    23
        -45.37164079  Gyration_radius:  2.38028023208 Dipole_moment: 5.940
 S          -1.31288789623159   -0.60508131796359   -0.10429800843322
O          -2.84774982833254   -0.60449274734041   -0.43900507249213
O          -1.17734153618349    0.27615302558456    1.05814527829058
O          -0.90851403633742   -1.96901949067081    0.17307611878078
O          -0.62163779770163   -0.04893162063322   -1.26269090638151
O           2.78599395895311   -0.01649602364565    0.67992277784361
H           3.43360480220321   -0.67264999487387    0.41860887489103
O           1.51989939356961    1.45666530424459   -1.13180511237377
H           2.11386073925137    0.91895677430878   -0.55656563729487
H           0.78603313581999    0.84716881323863   -1.37819778114240
H           0.75298792607890    2.18256972649151   -0.14394789778023
O           0.89966853466930   -1.35106212979002    1.99931554742896
H           2.10444557112647   -0.50740324098181    1.20033932960062
H           0.31604291065006   -0.73605252270234    2.45217406102286
H           0.31755901933476   -1.76451301311075    1.32903246340078
O          -1.92315592244099   -2.21118225186791   -2.33337588136673
H          -1.32921169364979   -1.47170650792849   -2.51835359332569
H          -1.51497949980560   -2.66513500799147   -1.58260378996358
H          -2.89372425684398   -1.20490681858240   -1.20730636726833
N           0.04637148073184    2.50577972847764    0.65934200590722
H           0.54672333581241    2.78962950454309    1.49529181906382
H          -0.52432745120925    1.60698634910542    0.85457138356201
H          -0.56966092951263    3.24472345210043    0.33833040794502
