    23
        -45.37164082  Gyration_radius:  2.38032266675 Dipole_moment: 5.943
 S           0.24481830419373    1.03611157876815    0.98463831675986
O           1.31703102068160    0.46892192048727    0.17372972215987
O           0.90935733858774    1.62889604258432    2.27876546686879
O          -0.45261407188257    2.10676843352687    0.30053460372292
O          -0.65672817803655   -0.01287960403400    1.46724684543593
O          -1.27796311084600   -1.07437137237605   -2.33172394157220
H          -1.34791116617989   -0.65606566599836   -3.19097511570607
O          -2.42497818001353    0.60483323037176   -0.61579456251582
H          -1.76657461162662    1.29953510115213   -0.40820981299573
H          -1.73543961810098   -0.46635548788088   -1.70130001757094
H          -2.56274503277406    0.16904502971463    0.22979692317910
O           2.07486297417304    3.09321667494118    0.40206668840729
H           1.16142176169251    3.24719874156023    0.12231659573901
H           1.49050210560631    2.32378188663595    1.91498317184905
H           2.29951267458109    2.23221140672992    0.02498023151998
O           1.08671800901119   -1.69223591649796   -1.29156572521255
H           0.27504162977297   -1.49854285762468   -1.81734958234669
H           1.33164565087275   -0.83267110198569   -0.87699742724126
H           0.51433932845804   -2.25295459034048   -0.08791127012634
N           0.00017883008663   -2.43379869708505    0.88784753535233
H          -0.82889750032416   -3.00585085263688    0.76469554800766
H          -0.27925257440410   -1.43642869955658    1.20191419420026
H           0.62767440647477   -2.84836522046026    1.56831161209982
