    23
        -45.37164084  Gyration_radius:  2.38033959109 Dipole_moment: 5.941
 S          -1.07394678333609    0.91763005004466    0.32601936577950
O          -2.05001389746803   -0.07718997859927    0.72395504872720
O          -1.69354111971192    2.34058931413795    0.56872529882884
O           0.14764165423814    0.84119260076262    1.12028248613345
O          -0.76974458186233    0.87520972689778   -1.10640609917317
O           1.08487623573598   -2.60779260279981   -0.49790107962773
H           0.98977445623620   -3.38262957468601    0.05782468381181
O          -1.76345299688276    1.33991960085651    3.02191088474015
H          -1.88781134093474    2.32293723826515    1.52519711736945
H          -2.20976442015123    0.60369278424794    2.58021948848432
H          -0.82345632383018    1.17946927933905    2.86532836780967
O           2.31981828996746   -0.42779712341377    0.38442011501996
H           1.58026763972880    0.01882190093534    0.85812877681504
H           1.96684581587028   -1.31683891019749    0.14388102864794
H           2.12961549495938    0.29478380479903   -0.85346232317950
O          -1.39127975972148   -1.85594041558587   -1.11688694366096
H          -1.37114204510091   -1.20343728449340   -1.82241407343146
H           0.16642739595578   -2.35075803461046   -0.75618046704647
H          -1.73902628722777   -1.35257387084330   -0.35215287052838
N           1.72538763757978    0.84263295361386   -1.73981748927656
H           0.66853727819149    0.91444539630036   -1.51759808016963
H           1.86702873720312    0.31308988255367   -2.59383689574406
H           2.12695891058113    1.77054326247431   -1.81923633032427
