    23
        -45.37164080  Gyration_radius:  2.38055120714 Dipole_moment: 5.950
 S           1.31550763077284    0.59086245358235    0.15447846961993
O           1.31209564820606   -0.58160860486847   -0.72381873705288
O           0.41374777514569    0.39743466174420    1.28503069074025
O           2.77388307160498    0.66074811341450    0.73441026008134
O           1.04878887293727    1.82637014496507   -0.55488838781069
O          -2.63563984249064   -0.14101093940964   -1.12265316229680
H          -3.27847880493174    0.56797912014447   -1.17057230823398
O          -1.76861188693676   -1.05325614097280    1.21679682855127
H          -1.04722120618149   -0.40909298121003    1.40489160302764
H          -2.22926915058276   -0.69311141787705    0.42257666572736
H          -0.90038679921295   -2.04019107804103    0.61324320054381
O          -0.48537074483052    0.74453482995329   -2.41564801687972
H          -1.85084400017428    0.17560166956748   -1.63280887030569
H           0.00888852026755    1.32120936321392   -1.79731358731235
H           0.12332414850326    0.01864698997698   -2.57811497087552
O           1.66208800061566    2.75359024976348    1.92193402925489
H           2.73499765717044    1.45420393842550    1.30165817619467
H           1.40958603710127    2.98206631510728    1.01624539153165
H           1.00098596006885    2.10538792361446    2.19897916191374
N          -0.09719653689799   -2.58755201353444    0.06193383798933
H           0.41300031327244   -3.21566993724979    0.67327673725464
H           0.55229654051325   -1.78943695352676   -0.27407069365145
H          -0.47617120396865   -3.08770568677617   -0.73556634801212
