    23
        -45.37164079  Gyration_radius:  2.38052355727 Dipole_moment: 5.946
 S           0.92718894865850   -1.10633473350153   -0.14550604881354
O           0.25850493765455   -1.08497381099492    1.15783540221391
O           2.28543083398213   -1.85450180283524    0.10574283929756
O           0.18198839119509   -1.84112812310051   -1.14825034544409
O           1.25771701640046    0.24566247825082   -0.58351248551790
O          -2.51282970244115    1.31657226022491   -0.41953906683484
H          -2.96434657731563    1.44199812420032   -1.25542066834259
O          -2.20833394701370   -1.31323373494012   -0.15118257044844
H          -2.43133098455804    0.33855868363706   -0.30492738642645
H          -1.42788484119397   -1.57120645631410   -0.68363277048573
H          -1.94400023086676   -1.52427971557236    0.74850395017352
O          -0.12381919928232    2.38806439175969    0.02823385847106
H          -0.04029241554590    1.86038284331083    1.37259904557281
H           0.45971387451152    1.70094631814394   -0.36912177609291
H          -1.03909329005064    2.12109130195942   -0.22426815773110
O           2.48690985521401   -1.30661785570755   -2.47938425395883
H           2.30645912439094   -0.40275517486185   -2.18883096462706
H           2.69088807274546   -1.85457739642083   -0.78230192658566
H           1.61571419957760   -1.72621006182186   -2.51428942250595
N           0.03521901466218    1.21890444109191    2.28428118288883
H           0.16084339636502    0.22604668071471    1.87150959380762
H          -0.81662688742352    1.26259583262779    2.83403117133210
H           0.84198041031927    1.46499548014942    2.84743079005322
