    23
        -45.37164083  Gyration_radius:  2.38051240933 Dipole_moment: 5.946
 S          -0.34205085390056   -0.57855837242335    1.28559522115589
O          -1.35652073993425   -0.05922007944040    0.37452267436320
O          -0.96051727626636   -0.54939945778780    2.72929910852685
O           0.02531748213865   -1.94598159881346    0.97578260984307
O           0.81317051297608    0.32016851957512    1.34904694931212
O           1.19473875446131   -0.05912158508010   -2.60604238974644
H           1.07433744320464   -0.73084540847797   -3.27877851716607
O          -2.62402691787871   -2.21069793205565    1.50597810297604
H          -1.71479600442148   -1.16341686871303    2.64543842390750
H          -2.70333564925607   -1.48747844494084    0.86987760392210
H          -1.80358373775280   -2.65983971161411    1.25808558780589
O           2.14880783419231   -1.33503216751956   -0.47480931162817
H           1.38662935759079   -1.74686424864603   -0.01804913055558
H           1.58152878389308   -0.52829534354813   -1.82721540351332
H           2.47828363507057   -0.70144566625144    0.16849500085357
O          -0.84792961025786    1.40257837316732   -1.74147091958353
H          -1.21915514972085    0.80444440857524   -1.05227606363506
H          -0.03026861823635    2.16167632020200   -0.82065715675569
H          -0.16335537887202    0.86360916034874   -2.20361867128101
N           0.62342825812553    2.51326174503179    0.01447416590631
H           1.53481793742369    2.79800430310284   -0.32916006554746
H           0.71888225128488    1.63105195636051    0.63454245905307
H           0.18559771613017    3.26140209892759    0.54093972178485
