    23
        -45.35323595  Gyration_radius:  2.35121094559 Dipole_moment: 7.315
 S          -0.85587847679397    0.72805746576404   -1.93373864598761
O          -1.37348733028095    1.00024771555897   -3.22144590388757
O          -0.60990285729132    2.04807694506708   -1.12696295139721
O          -1.58247243401135   -0.17526003045564   -1.08729815958036
O           0.60600081482376    0.19873263402819   -2.08662801733175
O          -0.06392461061166    0.14193566655637    2.15231146485698
H           0.11330739819931   -0.12233885340273    3.05601031629657
O          -1.76508024686851    1.99130122761400    1.18473079867329
H          -1.62261840418739    2.79379503958503    1.69092839111676
H          -1.15686356188572    2.01672233236724   -0.29127485573933
H          -1.24910910567329    1.27738225665034    1.61627720878110
O           1.66655990724991    0.81769028259949    0.21215200354881
H           1.57261164434335    1.76932910695639    0.12213939194087
H           1.08456916161118    0.54980311282492    0.95822574350684
H           1.05683321055234    0.35433838812568   -1.21212740486506
O          -0.82323942003538   -1.89254505409939    0.82783320167423
H          -0.00266219827860   -2.20012399298169    0.37714773869460
H          -0.40298532000211   -0.69795258437518    1.67669489784767
H          -1.31288310575370   -1.40865198352975    0.13777320166692
N           1.47091322492943   -2.32297414327481   -0.58788532615195
H           1.16614715862140   -1.95254398796908   -1.48145257337536
H           1.90481430562724   -3.22258745966877   -0.75196677815458
H           2.17935022571534   -1.69243409393574   -0.23144373212514
