    23
        -45.37164083  Gyration_radius:  2.38034812928 Dipole_moment: 5.943
 S          -0.27352600389329   -1.36121700533305   -0.41578188857990
O          -1.46217207520060   -0.66213083382715    0.07891715356873
O           0.46729349663933   -2.02667034925416    0.63745532891591
O          -0.82452762435154   -2.45623496747897   -1.39818937853738
O           0.56820518340463   -0.46520522988344   -1.20164901647363
O           0.95870899345419    1.97625099780332    1.84435408564479
H           1.81260274542632    1.98543201791941    2.27911806170313
O          -0.18421135673742   -0.32091610700700    2.54863433242068
H          -1.11435924722963   -0.31458170323210    2.30644808537373
H           0.19496499455629   -1.01873929648215    1.97556801214184
H           0.52066042630713    1.13955411561476    2.13497358556310
O           1.78347035350442   -2.89513875636229   -1.57204973111123
H          -0.00727358364461   -2.90000432701478   -1.69494415851201
H           1.81862689715146   -1.95214023806453   -1.78010228311873
H           1.72034491736807   -2.92608254359647   -0.60695498652521
O           0.76613415901319    2.11769384391773   -0.80108318037203
H          -0.67889268257694    2.06395437512588   -0.79369942986689
H           0.96173171371154    2.16142028475644    0.16466793614518
H           0.88509526366975    1.16954368540665   -1.04110869017714
N          -1.75418771534855    1.77450153636558   -0.69911954737898
H          -1.69896554531747    0.73653020106167   -0.39735893670081
H          -2.24030631030388    1.85240043174015   -1.58579806517200
H          -2.21941699959234    2.32177984783130    0.01770270103845
