    23
        -45.37164082  Gyration_radius:  2.38033406576 Dipole_moment: 5.942
 S          -0.14398337850369   -1.43766906603967    0.11304067908022
O           1.02441505166294   -0.73335373801330    0.63054958216697
O          -0.52244160164967   -0.92403350095911   -1.20573828681891
O           0.28915090565912   -2.92656041513600   -0.13875188425486
O          -1.24606900885913   -1.43779840973210    1.05452805362100
O          -0.85275915473523    2.70523448122143    0.42290984743031
H          -1.12616784275211    3.09462315155912    1.25471376843713
O           0.67187399398666   -2.72971325574424    2.47652069579501
H           0.52241589387949   -3.23022550870094    0.75915142539987
H           1.20563712310233   -1.96276982693507    2.22996779939148
H          -0.23872647307127   -2.40262890147386    2.46442612940284
O           1.60923095932165    1.76469659252890    0.09307993249018
H           0.76282792210753    2.22418749030652    0.30610014128792
H           1.50826967358263    0.85987615977783    0.46972018454685
H           1.37271088890920    1.35815945678399   -1.27409837559344
O          -2.49192130024595    0.64930620813107    0.01634764339552
H          -2.40107577164449    0.32844513626343   -0.88512497579033
H          -2.15851534982230   -0.09597219701543    0.55722437827549
H          -1.48442656427491    1.96405959963077    0.25531864760295
N           1.02493950753558    0.86810888241325   -2.21651759657396
H           0.49206171433801    1.51360094859429   -2.79027275242311
H           0.38296786381822    0.07590774222972   -1.85350639400741
H           1.79958493767891    0.47451897029865   -2.73958863286250
