    23
        -45.35981436  Gyration_radius:  2.32612589278 Dipole_moment: 5.669
 S          -0.10147965993547    2.11861351401690   -0.33333684223516
O           0.86539022725360    1.21422857776905   -1.15315765862382
O          -1.33885841540163    1.39817718902294   -0.14111439535766
O           0.61629174868223    2.19434459275715    1.04532085758245
O          -0.18118525907030    3.38520283684362   -0.95470063812073
O          -0.10813119163979   -1.57433788535752    1.61596978662321
H          -0.16598453538426   -2.47267097447883    1.94297103565483
O          -1.00681654069277    0.84244496746059    2.46290296115700
H           0.01982575482473    1.72046187883968    1.71655063012948
H          -1.67692863010111    0.97383561798215    1.77676592091898
H          -0.70443433632249   -0.08159595459709    2.35722841682210
O           1.99262482045500   -0.27212600804600    0.61120283401395
H           2.22956937284709    0.38643320954698    1.27013869191248
H           1.29073607881736   -0.83361882432400    1.01192144133932
H           1.33425369573350    0.58928628995563   -0.51497402603103
O          -1.49719556956456   -1.27464595670620   -0.51378794460028
H          -0.92493074360745   -1.42250040288518   -1.30341931795037
H          -0.68481200037382   -1.53316624923362    0.78202572477205
H          -1.62383160607200   -0.30964822209897   -0.47428653791331
N           0.23222683014064   -1.33318052866752   -2.61276807933794
H           1.06128355618274   -1.91039076530841   -2.54770761705607
H           0.52131841110845   -0.36649684985438   -2.49929456648871
H          -0.14893199788137   -1.43865005263879   -3.54445068721035
