    23
        -45.37164081  Gyration_radius:  2.38025816663 Dipole_moment: 5.942
 S           1.19507181994485    0.53394448171797    0.62194510505250
O           0.76432657653842    0.94825138341740   -0.70910883690087
O           1.05923311518107   -0.91527086787747    0.78806584518194
O           2.73849216557437    0.81160306435829    0.71446153499232
O           0.53432338544119    1.28508908444978    1.67084024690457
O          -2.81323782533317   -0.54420059632248   -0.10488679471354
H          -3.52218301014439    0.08584786294974    0.03173118541137
O           1.81205222390403    3.26334170610842    0.32053226951018
H           2.78241804804276    1.78101198565712    0.60853209436424
H           1.38062458102147    2.85979804542984   -0.44421747064191
H           1.23872644311854    3.03771038801963    1.06671407255926
O          -1.09377206980655   -0.25922143157803   -2.10912609973784
H          -0.35154436718055   -1.45177450959996   -1.76671418965790
H          -1.83909350070770   -0.30535058585864   -1.46468385415516
H          -0.44649470691981    0.36336893396841   -1.70388316128134
O          -1.36545304713965   -0.49495678621414    2.12675853554119
H          -2.29711414761136   -0.55142829047832    0.73770138752769
H          -0.75104606106095   -1.23406849410067    2.13786504828137
H          -0.77872522779285    0.28722797907206    2.07118278773674
N           0.28859265453545   -2.23169331908860   -1.28585286508551
H          -0.26169550923088   -3.03817442561376   -1.00922878875952
H           0.67045045895519   -1.72358377000747   -0.40982979692231
H           1.05604799070204   -2.50747185841319   -1.88879827523696
