    23
        -45.37164080  Gyration_radius:  2.38031510082 Dipole_moment: 5.943
 S          -1.11002989343463   -0.92955791340815    0.06505907684456
O          -1.00632850205710   -1.43427097364251   -1.28969457983542
O          -2.24719087230120   -1.72477401471083    0.80148049034150
O           0.11779105400663   -1.13450223663702    0.82622027489841
O          -1.53092007222687    0.47265059174650    0.11920032912377
O           2.02602438720112    1.48399666925600   -1.38477226881910
H           2.66645328472348    1.13380799183922   -2.00563132646553
O          -0.36069238699466    0.87911870657203   -2.39334312509968
H          -1.04842751122523    1.36073228405538   -1.92542579202763
H           1.14039816721301    1.29033984857810   -1.77784657698179
H          -0.54171187346804   -0.05558958304246   -2.16379993336596
O          -0.59647128403468   -3.69527494440614    0.15585731525020
H           0.05914264821627   -3.14752539902332    0.60757425376432
H          -1.93329165812116   -2.64671157676181    0.73500598476578
H          -0.66822534727716   -3.30535251753377   -0.72683823457556
O           1.98576069311428    0.67631833216301    1.14524563169270
H           2.15744692774752    0.95984922028644    0.21623474883637
H           0.87382899173182    1.52981767688529    1.49943727533702
H           1.44269193075516   -0.14181101219448    1.06413487535825
N          -0.12072727507896    2.02782191319654    1.60952855886544
H          -0.42776230211035    2.03714987406934    2.57609482379436
H          -0.77298271439587    1.39650848713587    1.02016612721686
H          -0.10477638198551    2.96725856558374    1.22611208108396
