    23
        -45.37164077  Gyration_radius:  2.38061434617 Dipole_moment: 5.949
 S          -0.21127302672649   -1.31751682884512    0.56991833000956
O          -0.08782951676598   -1.10483062564730   -0.86828903126068
O           0.78099844432894   -0.52703599995608    1.30253412220506
O          -1.56410663126606   -1.10016995206509    1.04259194819788
O           0.17389751442034   -2.81463776800952    0.84945866763285
O          -0.69156536406875    2.74817806911822   -0.44203468116868
H          -1.53844019846447    3.08843382506055   -0.73406222814967
O           0.73988706808437    1.12113924478128   -1.97833604226839
H           0.16335899499778    1.79362821870303   -1.54467639764536
H           1.81407231192247    1.01233078872538   -1.01566573517460
H           0.33315423705386    0.25326223226302   -1.75043032529565
O          -1.18738334648476    1.40393986485974    1.80027802615720
H          -0.87179448464960    2.27888035391334    0.40859438876779
H          -1.52440335354397    0.52135794201499    1.54219271508885
H          -0.36362901206397    1.20407641320931    2.25340909843628
O          -1.93442993258882   -3.12605441318651   -0.72630939775260
H          -1.44041868687045   -2.54231200418886   -1.31714997421603
H          -0.51212353124420   -3.30218773718435    0.35490570875123
H          -2.34917595390454   -2.52762654132674   -0.08913540252790
N           2.45888956628534    0.80194419668630   -0.12773195322571
H           1.81015632050893    0.21313033162324    0.50801108868155
H           2.72359538067457    1.66049083934875    0.34402947909721
H           3.27856322034841    0.26157955011748   -0.38210240432971
