    23
        -45.36514204  Gyration_radius:  2.28501377358 Dipole_moment: 7.086
 S           0.18850437088840    1.79795305401081   -0.72819330105216
O          -0.40142822639704    0.58728300650397   -1.31741309609783
O          -0.86620291102038    2.34635864779541    0.29399465813761
O           1.36102424378679    1.37599263008836    0.09676261239202
O           0.50513605224024    2.80511660735760   -1.67905649905130
O          -1.19209951225566   -1.65874118932306    1.29834427781443
H          -1.72850750060022   -2.27314631632206    1.80097558585778
O          -2.64445960262530    0.05370751179558   -0.07592355561654
H          -2.89872296127915    0.87969433163859    0.34242502454241
H          -1.89386503309883    0.28799543384744   -0.67044183791286
H          -1.82658200809881   -1.07585927949681    0.80109687430678
O          -0.10374983882780    0.72673479324539    2.19957574103671
H          -0.41781674107528   -0.17400304543630    2.00819226519137
H           0.69902079922151    0.85999453021379    1.66651926848478
H          -0.71255225861494    1.81770831317811    1.11579102063767
O           0.21861414858065   -1.95842300264157   -1.03320671242412
H          -0.16650807173362   -1.11198732522644   -1.34938074719442
H           1.60945272969609   -1.34357094159837   -0.95675082110576
H          -0.19379618606286   -2.08066614149676   -0.15831552443082
N           2.45230758188411   -0.66041431859747   -0.92842073753014
H           2.02935396438251    0.26857177852887   -0.48602638487233
H           2.76256451866843   -0.45605175971731   -1.87303177843933
H           3.22031242234174   -1.01424733834848   -0.36751634267297
