    23
        -45.35323588  Gyration_radius:  2.35128599835 Dipole_moment: 7.306
 S           0.13257208683251    1.81697842811493   -1.29529602025015
O          -0.73752501882521    2.29945407063740   -0.08527950307191
O           1.30783705768869    1.18466523109377   -0.76679689027117
O          -0.79344872210519    0.71580298323108   -1.90368418851075
O           0.29955352459085    2.84467614007316   -2.25241671447104
O           0.15885763439181   -0.78529280351310    2.00418312192438
H           0.23652024438518   -1.46001443634785    2.67994917407823
O          -1.81353434857503   -0.39001874841264    0.22390346021115
H          -2.27426418189244    0.39103088349400    0.54053819578197
H          -1.17614417854175    0.21085427072867   -1.13489979761275
H          -1.11906554216278   -0.59263013426043    0.89009961282896
O           0.44832622700723    1.88692454788314    2.17440968405336
H          -0.07268813228480    2.17666400671917    2.92616950952059
H           0.45796680332518    0.90618608629051    2.18525106844508
H          -0.19595940283048    2.21267553459567    0.74988803255382
O           1.80667654689190   -1.29205373218997    0.13339233711944
H           1.26258698070111   -1.76205737988405   -0.54036894976228
H           1.88147058118205   -0.38171138546084   -0.20669703148984
H           0.86617949909542   -1.01120968083776    1.30082201815815
N           0.03280806183435   -2.22459294670405   -1.72096155757296
H          -0.00064099215366   -1.40526512881537   -2.31791652587380
H          -0.87332989901083   -2.30376272413264   -1.27453328906387
H           0.16524516045734   -3.03730309230347   -2.30975571672874
