    23
        -45.35323589  Gyration_radius:  2.35130337368 Dipole_moment: 7.306
 S           1.81890340555444    0.39660652108526   -1.23705969909031
O           0.71451989042075    0.09719122328773   -2.30696452182400
O           3.07158697339581    0.64491685565045   -1.84471057555273
O           1.29754408316570    1.38029911217259   -0.33100853393865
O           1.88934684272152   -0.97573664949480   -0.49416850752485
O          -2.10181965115887    0.40689453572922    0.27430394371316
H          -2.93999444476381    0.42565875275470    0.73804289086018
O          -0.27003646071866    1.22345112392872    1.83959768612520
H           0.12401261459638    0.39366875565759    2.19605657535959
H           0.35413078936624    1.51163851771082    1.14872294927472
H          -1.41133558481967    0.78101088905948    0.92949323137233
O          -1.34995945262592    1.62399148039934   -2.00763254651860
H          -2.03701573644613    1.45175802758327   -2.65480367183766
H          -1.67653053942780    1.30138446552441   -1.14084386979952
H          -0.01159086229407    0.77701712439837   -2.21255130662272
O          -0.61062748301593   -1.70878644173079   -0.44399041375508
H          -1.19289936214910   -0.97497751015589   -0.14458394009115
H          -0.72283479062152   -1.77371061489107   -1.39570583673927
H           0.94964391483433   -1.28931869333782   -0.38874815801714
N           0.89007097251218   -1.18612431881558    2.39033576098070
H           0.31027287171318   -1.91210525053124    1.98620483204370
H           1.19668279938093   -1.50011853475432    3.30249024091245
H           1.70792919037894   -1.09460935122296    1.79752348066334
