    23
        -45.37164083  Gyration_radius:  2.38045791073 Dipole_moment: 5.947
 S          -1.09451080007068   -0.87889955387355   -0.36495852162019
O          -1.71319747373041   -2.18877165649705   -0.97268534193111
O          -0.04544121304604   -1.29057571317811    0.56178816119495
O          -0.52891724481844   -0.15991398635404   -1.50923732878218
O          -2.15224067051832   -0.14094526447221    0.29649706368622
O           1.09909460366447    2.42943323091893    1.05646785371651
H           0.88624782785956    2.83879621458070    1.89631450471687
O           2.19637427245076    0.01305199262959    0.94342683523640
H           1.87432160514578    0.92875602730431    1.11812884812709
H           1.39183412063844   -0.55320348537137    0.99635820193825
H           2.25755332537625    0.00867566071761   -0.50124366637537
O          -2.26533000232433   -2.52057959976624    1.59839156127730
H          -2.08374353402135   -2.62947383412630   -0.18440892324012
H          -1.31680903489307   -2.37124870936975    1.70781662979077
H          -2.63965978117033   -1.63273154215634    1.50983886821689
O          -1.20184100906940    2.25973046648929   -0.26881291327239
H          -1.67486526493842    1.47225916791242    0.07071065327692
H           0.25007534540519    2.39913711363485    0.55181669721015
H          -1.03521795020212    2.03935942563408   -1.18946993070344
N           2.03919314372909   -0.00067049610191   -1.59732199268270
H           0.96149812757163   -0.09589533084086   -1.62792099669282
H           2.47068034439067   -0.79538184992213   -2.05647244337250
H           2.32490125258608    0.86909172220801   -2.03502377972380
