    23
        -45.35323609  Gyration_radius:  2.35133193929 Dipole_moment: 7.310
 S          -0.02344207154593    2.14765280799721   -0.62322510213554
O           1.47333885219518    1.90327988509443   -0.23095604470046
O          -0.84347899688626    1.66975031193793    0.45360182665058
O          -0.22666827221341    3.46975042347715   -1.08244242395716
O          -0.17432961410119    1.17177656196740   -1.83367177330439
O           0.65025643472995   -1.42786283795287    1.48299258531986
H           0.67479649327170   -2.26787577641725    1.94309985272320
O          -1.77509416402040   -0.75907375311357    1.10681542975118
H          -1.62188869560181    0.20033883161732    1.02914778411146
H          -1.96106918477967   -1.05368937240355    0.18511522291993
H          -0.33974180778721   -1.18633868862870    1.39427059740359
O           1.69599937552179    0.95811710007736    2.16481068770328
H           2.60747775787102    0.80058906561434    2.41962884266854
H           1.51034579115861    1.63695261225219    0.73137778017710
H           1.26993202380498    0.08278950573776    2.04487858209483
O           1.24856334086008   -0.87617409720796   -1.07696181948106
H           0.30410988596777    0.33447219666429   -1.58404941510550
H           2.08932579513351   -0.41350523702894   -1.03618439885434
H           1.03233409340685   -1.14222231179277   -0.15523876903446
N          -1.93239791993100   -1.31708554640127   -1.56121308937953
H          -2.69984922604468   -1.78801461209517   -2.02365282535953
H          -1.07140892252960   -1.77631923464086   -1.83398955849717
H          -1.88711096848552   -0.36730785476534   -1.91415397171644
