    23
        -45.35323604  Gyration_radius:  2.35127149714 Dipole_moment: 7.308
 S           0.63360507006561    1.84196481444515    1.09851338154764
O           0.71171486699360    2.01285447373979   -0.45228284355930
O           1.81892491328160    0.84825977716242    1.34678454203905
O           0.87801096421420    3.09696289209524    1.70289348449650
O          -0.58698589473288    1.15926180215568    1.42182861035194
O          -0.20769652237651   -2.14739033482115    0.07447294093212
H          -0.51613822670428   -3.01076452023552   -0.20366532668788
O          -2.16222528448542   -0.51969460818303    0.04609231676748
H          -2.07544507068708   -0.06134857670698   -0.82185990032969
H          -1.03446093598505   -1.54504789003857    0.08526697836598
H          -1.79841658006244    0.11266718565357    0.69248645247182
O           1.33565885955570   -0.38962592644764   -1.24596038665722
H           0.89267999461352    1.10855554790167   -0.82880339884476
H           2.18633975138141   -0.43125949281622   -0.80179690901604
H           0.76541969389670   -1.06759174394442   -0.81891588154615
O           1.00302464266483   -1.38720417668975    2.35639516004155
H           0.47527508115462   -1.73227102601064    1.60502771285075
H           1.71757418704369   -2.00789326791147    2.51354295894831
H           1.46641364751919    0.04663257340387    1.82795795894490
N          -1.50218178097133    0.85621511031389   -2.21781285371491
H          -0.71351171389003    0.38750240826913   -2.64777713668540
H          -1.14461949203673    1.69862778190635   -1.78060443313597
H          -2.14296017045355    1.13058719675339   -2.95178342757841
