    23
        -45.36514205  Gyration_radius:  2.28496979936 Dipole_moment: 7.082
 S          -1.01509493460196    0.02460382594739   -1.66323291560689
O          -1.82054313780665   -0.47838789184450   -2.72015345502116
O           0.44644560681611   -0.20557601767777   -1.87403091795468
O          -1.18306706242531    1.58012978410320   -1.56302902382625
O          -1.36501972794934   -0.51259170456263   -0.34032297757990
O           0.71658079816459    1.02108791662250    2.07384290526362
H           0.93668718005377    1.47111851490232    2.89049756721667
O          -1.75682573650312    1.48828369116682    1.30286692466742
H          -1.92608953092024    2.24477663598476    0.73638022293673
H          -1.76781329658146    0.70879680949975    0.69955231992493
H          -0.23482720343986    1.23929672325425    1.88211089116635
O           1.18063257292782    1.93234309340363   -0.50298830807682
H           1.28079026841957    1.13035675692844   -1.04437682883863
H          -0.33570524015287    1.89595824029298   -1.16208745501492
H           1.16900676222462    1.64104528658011    0.42526429556719
O           0.12719815754879   -1.60270665246096    1.53906733008887
H          -0.63489034901758   -1.29873391336627    0.99916959582125
H           0.84777313672331   -2.12178032630817    0.30197387124001
H           0.50623028569490   -0.77242994467068    1.88166778033227
N           1.16185880153261   -2.33465733480221   -0.71482314764450
H           0.86598651439378   -1.42480314705369   -1.28260360951775
H           0.64026039092764   -3.12594033441158   -1.07836862712552
H           2.16042576397017   -2.50019003152681   -0.78637641801744
