    23
        -45.35323575  Gyration_radius:  2.35104327229 Dipole_moment: 7.309
 S           1.21376981536049    0.68884292903069    1.74583359446836
O           1.38440047634714   -0.86809675328189    1.77687416447764
O          -0.18956653067310    0.97527603449492    1.65059633441331
O           1.95384786304321    1.30903850077451    2.77922059799956
O           1.88512584895316    1.03184748368197    0.37773205136848
O          -1.47620122995595   -1.40350525717569   -0.70979857252568
H          -2.12989063556749   -1.76085686199716   -1.31222199778065
O          -0.89573453987996   -2.08433289301176    1.83033737284328
H          -0.80694556603679   -3.03946992158210    1.84986160618920
H           0.48438395264152   -1.28453635065901    1.89962864454009
H          -1.23829491226869   -1.84025626294888    0.94425281340582
O          -1.89411458581304    1.08835230996617   -0.41686982822483
H          -1.26702070172073    1.50913110676976   -1.04990907121930
H          -1.71269882634845   -0.41481309524623   -0.59485111052458
H          -1.46059158249422    1.17921193268710    0.45138755812660
O           1.14085022901455   -0.96373256648752   -1.12368838080198
H           0.17642583626508   -1.13581901535695   -1.03652942971598
H           1.59178246393283    0.33019746923292   -0.26574641715563
H           1.58579824984471   -1.64973209457184   -0.61971847725852
N           0.16408841353085    2.02121691634774   -1.94870614493967
H           0.59218535968921    1.22855908349789   -2.41233548007070
H           0.78972741506584    2.30147443987014   -1.20130190452840
H           0.10867318706908    2.78200287597920   -2.61404792310430
