    23
        -45.35323595  Gyration_radius:  2.3512673421 Dipole_moment: 7.311
 S          -0.44858822162785    0.06337846503242   -2.19016324461760
O          -0.56211562572157   -0.00331786245845   -3.59825447525200
O          -1.76129952018816    0.61518406846219   -1.53737796291778
O          -0.42615167798021   -1.39227799552435   -1.62328387748654
O           0.65783020114891    0.78780456439082   -1.63209463816678
O          -0.07063884727751    1.06764016471062    1.87493001751215
H           0.14004298886453    1.24752928606420    2.79206543139766
O          -1.31247599387135   -1.05984830184236    0.80453177584146
H          -0.85446372006478   -0.31438542380046    1.25355799806746
H          -2.18270889266159   -0.73605333014920    0.55877612937282
H          -0.70323092829187   -1.32974474537623   -0.66848320132547
O           2.07282198998739    0.50181486267577    0.62802643554100
H           1.76015053285581    0.74631682576933   -0.26226277289953
H           0.82404047168780    0.88747767856811    1.41256469508110
H           2.08907507914472   -0.48341052470995    0.62095049209920
O          -1.28686527090104    2.61154159999750    0.03471073041866
H          -1.53742279168070    1.44224104227698   -1.02324070340732
H          -2.08160160856362    2.96032854000155    0.44367524782458
H          -0.77062971199583    2.15996744155085    0.73596805417978
N           1.70882722380521   -2.19527583300585    0.41301266204090
H           0.89210312798343   -2.44469301564654    0.95829447381602
H           2.41724772412710   -2.90159392313450    0.56730670821861
H           1.43605347122522   -2.23062358384176   -0.56320999533911
