    23
        -45.35323587  Gyration_radius:  2.35126340611 Dipole_moment: 7.306
 S          -0.54616371000610    2.16422460749350    0.11581249570290
O          -0.66995021095352    1.42412574552688   -1.10785459316849
O           0.85581089853664    1.86665887341538    0.73711183010942
O          -0.73089208238388    3.56565282292124    0.07086293078504
O          -1.48705510540219    1.49801169112202    1.17642357660928
O          -0.73202533037483   -2.02645346902798   -0.12412710960505
H          -0.68055820752261   -2.97157790400267   -0.27253794065589
O           0.53594123266489   -0.52913101598323    1.71022654483840
H           0.11126404890274   -1.12727980226024    1.05516520558938
H           0.82092133512381    0.93240202672840    1.08138757067806
H          -0.14436186384185   -0.29698861863876    2.34730184907361
O           0.48100834769062   -0.82430256206563   -2.00946318257790
H           0.00851039150890    0.02452473017123   -1.93045340881539
H           1.37554210715851   -0.64310487492303   -1.63807067099449
H          -0.26863330583206   -1.59185814653493   -0.92582066888136
O          -2.87902795932113   -0.42422415431017    0.15196557476565
H          -3.45985944192006   -0.84391832975463    0.78996062714379
H          -2.07241415363824    0.83568059240244    0.71048892365684
H          -2.16281743868752   -1.06144448255330   -0.05554693275739
N           2.73618840699731   -0.11049713524480   -0.64601390220367
H           2.70715993244408   -0.55672353200919    0.26317356527391
H           2.51775988699356    0.86959694343354   -0.50318168494331
H           3.68365222187444   -0.17337401591781   -0.99681060963177
