    23
        -45.35323592  Gyration_radius:  2.35113427238 Dipole_moment: 7.309
 S           0.71400043193228    1.07301823692374    1.82689778578188
O          -0.67770032963880    0.78885557934231    1.61994815183649
O           1.07135277103711    1.91234447623744    2.90763546345880
O           1.47847638920490   -0.29302842649896    1.88790213613729
O           1.29844186567428    1.67936681040880    0.51117623079138
O          -0.75348950964870   -1.85388868912777   -0.80709799846491
H          -1.16911326756728   -2.42640326795556   -1.45316279311989
O           1.50635972968423   -0.41767959509613   -1.02192375123066
H           0.68244212157022   -0.95449115715496   -1.00798579122285
H           1.35099933440756    0.93242922394202   -0.14586565029611
H           2.14463403765959   -0.88554216150367   -0.47754836285920
O          -0.13990497311065   -2.30539946766070    1.77576690693490
H          -0.48477074769965   -2.19620039545915    0.86401848447132
H           0.31404377214280   -3.14993565056796    1.81092431651319
H           0.80706816314448   -1.03097877895209    1.94411820716896
O          -2.13382429383418    0.26986944958605   -0.57195616369451
H          -1.67600794436187    0.91483885227564   -1.15952735207446
H          -1.36590477097797   -1.03915121874575   -0.72024874893695
H          -1.83599221341469    0.50484628594327    0.32584895621732
N          -0.49470244308017    1.96295864804630   -1.95090724813180
H          -0.08822041529463    2.45133957412424   -1.16043955417172
H          -0.79153259103048    2.65390850955207   -2.62850785026232
H           0.24334490320564    1.40892315233853   -2.36906537483294
