    23
        -45.35323593  Gyration_radius:  2.35129357264 Dipole_moment: 7.305
 S          -0.21847433581078    2.06299833261331    0.83286875268608
O          -0.25125040398183    3.42871900961957    1.19867830275652
O           1.05611440497162    1.40486187479731    0.78140558429746
O          -1.16430057099380    1.20569945310098    1.74089110742283
O          -0.91722464653607    1.90249918099414   -0.55501837906207
O           0.30743576045005   -2.08891658762536    0.44879170419035
H           0.51328202707339   -3.00630091119486    0.26447324723089
O           0.07978374860592   -0.79717315183111    2.80106388512676
H          -0.61575993198212    0.51058885514800    2.20364991181639
H          -0.48649566380234   -1.33314337881416    3.36017485140099
H           0.27707044845166   -1.32121139879994    1.99577812832696
O           2.02109071504634   -0.60627418710663   -0.70769615808585
H           1.04466350800514   -1.54107293393750   -0.00105329696495
H           1.57675304619280   -0.34070916602935   -1.54608209765915
H           1.91988048964277    0.16731630398664   -0.12349794003430
O          -1.70484899544065   -0.58084600917045   -0.49610015830813
H          -1.19530784686966    0.94838598924319   -0.62354205640828
H          -0.98418587136170   -1.17830158999896   -0.19477132912065
H          -2.30663495743457   -0.48487428307989    0.24634298029765
N           0.45698965897525    0.28626471433139   -2.76009477499508
H           0.74069508582588    0.36821684410859   -3.72829367534752
H           0.26802298593208    1.21823292006426   -2.40728128240381
H          -0.41729864495736   -0.22495987041963   -2.73068728714975
