    23
        -45.35323603  Gyration_radius:  2.35134620985 Dipole_moment: 7.309
 S           0.83430761869803    1.44039016284064   -1.49341574035998
O           1.18091154579526    0.04769617047125   -1.51966525062113
O           1.31060564706898    2.02726376242226   -0.12126610713858
O           1.24965963120198    2.25314476239421   -2.57370335287093
O          -0.71581197987966    1.56403439587496   -1.34484274914104
O           0.39704393978462   -1.18705731987412    1.75900421296259
H           0.23823451652381   -1.86792239274324    2.41406955180365
O          -1.08159670982414    0.97649080406185    1.16768412954257
H          -0.93357925083577    1.29409706750117   -0.41106773870558
H          -0.59047561599585    0.16297230708944    1.42080417383713
H          -0.58377297015020    1.71643909820014    1.52442106660865
O           2.60420890580717    0.27772153108917    1.27445735470641
H           1.88812273896321    1.34899066521011    0.33131014196405
H           2.90153664916587    0.62182390642373    2.11927987745857
H           1.88426763568106   -0.36313513433746    1.45632547115311
O          -0.01166841654911   -2.15407445467583   -0.55817240331027
H          -0.93336866248618   -1.87769367998521   -0.77024796262816
H           0.54944597026000   -1.52587298782145   -1.04855828922175
H           0.26032460810666   -1.63590789789731    0.85012366667395
N          -2.41592121654429   -0.96450521136248   -1.06743051217746
H          -3.22444229588038   -1.41375691950119   -1.47870756698685
H          -2.09367909426004   -0.24792238327745   -1.70880801225828
H          -2.71435319465698   -0.49321625210755   -0.22159397128585
