    23
        -45.35323579  Gyration_radius:  2.35114828062 Dipole_moment: 7.304
 S          -0.96871443477519    1.29280283550960   -1.54445706102222
O           0.53967655790363    1.29184115583949   -1.96756434217711
O          -1.03315281146060    1.61762496677726   -0.14776432467395
O          -1.75576031254211    2.04944102454042   -2.44350350140863
O          -1.32514073915832   -0.21786213945037   -1.72048270083253
O           1.65153856454801   -0.21769326960880    1.37203913997065
H           2.13970533363310   -0.59119460367260    2.10696566680565
O          -0.76191912968381    0.15528067585193    2.08409485071026
H           0.70493219920679   -0.04982579514332    1.72148199129662
H          -0.96947148414039    0.85254100743798    1.43543265106465
H          -1.23389729915153   -0.64159750593871    1.74774502083474
O           2.08065717675096    2.04012209688024   -0.03188954114162
H           3.00853858472278    2.04482492967076   -0.27596936076233
H           1.07895222708354    1.68340665639539   -1.22301844575210
H           1.94551093426506    1.29427765489793    0.59063606352544
O           0.84743785879607   -1.40086220990138   -0.90155680717421
H           1.15734881120315   -1.02740481266691   -0.04617775168783
H          -0.54972124851244   -0.73496749265846   -1.36867744007746
H           1.42632865660723   -1.04340436084357   -1.57958473357310
N          -1.90241796532704   -1.93309682363998    0.74535042463775
H          -1.15767442348872   -2.49551343150550    0.35092140697417
H          -2.31581234890842   -1.40965305116480   -0.01869764595139
H          -2.60694470756518   -2.55908751760962    1.11467644041238
