    23
        -45.35323580  Gyration_radius:  2.35116658575 Dipole_moment: 7.311
 S           0.64036753782370   -0.10689124497895    2.13965463933113
O           0.85324832416667   -0.14305752672612    3.53735688316817
O          -0.17293029217109   -1.13249881052489    1.55044729467470
O           0.03595995554746    1.28369017882946    1.76402824263702
O           1.99638894541090   -0.06135066482360    1.35685904171634
O           0.28410376115043   -0.77334104854981   -1.99448590378833
H           0.07120704668269   -0.92689929613935   -2.91592105031348
O           2.14198011211291   -1.92841350680073   -0.42467686644644
H           2.04429929721366   -0.85881843406126    0.75663608681968
H           1.43501791176238   -1.63408126243999   -1.03765936885101
H           2.96826682907750   -1.91314920794650   -0.91207900806388
O          -1.79508100306805   -1.17438095361557   -0.58522497731366
H          -2.16868977378747   -0.27204848428055   -0.45355579797848
H          -0.56851006432178   -0.98686261610579   -1.47099040442534
H          -1.33512147896031   -1.37135775682257    0.25125277009833
O           0.75263774491362    1.54850845484059   -0.72749152729852
H           1.69977751983643    1.55199280114833   -0.56807826427758
H           0.56043566671992    0.73359850571480   -1.24333128492735
H           0.22706606944372    1.42413523161477    0.79656675620644
N          -2.42187308656008    1.42815783528529   -0.05013327616878
H          -3.34956730012470    1.83184153799187   -0.08147542705920
H          -1.80421173218402    2.01645733521985   -0.59686459660615
H          -2.09477199067264    1.46476895317908    0.90916601888646
