    23
        -45.35323591  Gyration_radius:  2.35128516139 Dipole_moment: 7.305
 S          -0.82242545860432    1.58749173797366   -1.34136433588110
O          -1.16219764314264    2.58740410026634   -2.28200478666300
O           0.23104212805363    1.86519115050651   -0.40676512280680
O          -2.07597955188948    1.12086907909482   -0.52597931557112
O          -0.46876588206106    0.27678214961188   -2.11408775218164
O           0.07833077093631   -0.78082349701679    2.01064175799368
H           0.40944306263351   -1.31570149321127    2.73328336560195
O          -1.67082284274443    1.26719514438749    2.02302065041751
H          -0.97492883642028    0.58353169461965    2.12479945867385
H          -1.90584865316337    1.29231198239503    0.44352862833157
H          -2.42923432854419    0.98275191679409    2.53726540145428
O           2.04276774683823    0.31781354174095    0.82478707999963
H           0.89860475748032   -0.33187907135470    1.59633639559773
H           2.21688510477751   -0.27441025189312    0.05676862632806
H           1.54685176767639    1.06679445267296    0.44657797481341
O          -0.96246819384279   -1.56509773364286   -0.33822500625360
H          -1.90327782855039   -1.38853576235972   -0.25871145691528
H          -0.58188376954759   -0.47259539080574   -1.46745675924107
H          -0.56258252080322   -1.34007209234693    0.53163053728967
N           2.08848526758969   -1.24896586074140   -1.41086647541921
H           1.66078254404458   -0.59509337451866   -2.05755355494558
H           1.42947416512369   -2.00652705357259   -1.27547207459797
H           2.91774816416316   -1.62843533860623   -1.85015324601682
