    23
        -45.35323585  Gyration_radius:  2.35113940332 Dipole_moment: 7.308
 S           0.78897383971567    0.30856699155069   -2.06859196914328
O           1.10562575165209    0.45017280510626   -3.43966820152677
O           0.35552378304965   -1.16934146953693   -1.80784068703807
O           2.07137890627949    0.40288935971322   -1.17387252216333
O          -0.20321193753763    1.18129249326053   -1.50790867516342
O           0.01349351351609    0.69533824373858    2.04297435309951
H          -0.29156242156185    0.76843884877890    2.94824518197039
O          -1.98221884057178    0.88787796907163    0.47761602636266
H          -2.21534304246162   -0.04788270582568    0.27509276198946
H          -0.81599859559448    0.81988096965765    1.45735968844092
H          -1.48835788068837    1.19044821058285   -0.30635338007616
O           1.81373923620924    2.17337283346133    0.69161975774451
H           1.96039217755754    1.16589493959437   -0.53824339052249
H           1.10719212024005    1.75400034849216    1.22739136983429
H           2.59220576630306    2.24269467748614    1.24814964086696
O           0.89846762181832   -1.47040497706588    0.72314618446240
H           0.48504440071400   -1.33521517056447   -0.83416840789947
H           1.84670894911568   -1.33793635187225    0.64633494375954
H           0.55467479812239   -0.71778896010820    1.25471360850352
N          -2.19681095374867   -1.74199526865001   -0.22324246160027
H          -1.54899493346296   -2.27082785762377    0.34872812485492
H          -1.79217080425496   -1.68105116767988   -1.15122402491590
H          -3.05875147441588   -2.26842476156545   -0.29025793183532
