    23
        -45.35323577  Gyration_radius:  2.35138578639 Dipole_moment: 7.312
 S          -0.49175177409633   -1.41946037498378   -1.65684600344487
O           1.02412947394642   -1.70109621144826   -1.37996723663856
O          -0.65350195180512   -0.00196935492057   -1.81474010640642
O          -0.99642824455204   -2.26709861860913   -2.67016965761497
O          -1.12497525880640   -1.84324330772762   -0.29308369689285
O           1.39512777979619    1.47040077617408    0.74571288702191
H           1.70280950413825    2.18451656944563    1.30542347913790
O           2.44232451180404    0.45598036778311   -1.51834700894551
H           1.53851840239395   -0.86042503332898   -1.54415767723812
H           2.08435912658905    0.94791805396809   -0.74902763765032
H           3.37423427937218    0.30098336451636   -1.35095843033623
O           0.64762603820103   -1.01712979686628    1.42837856823686
H          -0.51805763762567   -1.50343980347811    0.42025048295070
H           1.36483660194848   -1.57924425710259    1.12483624316487
H           0.92192466106412   -0.09107102895677    1.24298712575521
O          -0.95755529910157    2.00362977252766   -0.06046516610051
H          -1.53953613523286    1.51269223109622    0.56508019371605
H           0.46797620013278    1.75190363705687    0.41740244040419
H          -0.93763565374079    1.44816449722533   -0.86121696915001
N          -2.33467926080407    0.27842433491211    1.54577680278082
H          -3.19330699047811    0.48939453677266    2.03844378478533
H          -1.68159951677569   -0.12217415617761    2.20867583015380
H          -2.53483884636282   -0.43765619787776    0.85601175231166
