    23
        -45.35323599  Gyration_radius:  2.3512573715 Dipole_moment: 7.309
 S          -0.00087734283846    1.61054130244463   -1.55130779539645
O           0.39058075860959    2.37250622526981   -0.23981652398811
O          -1.44143884828307    1.12496908734220   -1.19159624475220
O          -0.08478208532966    2.49219316301668   -2.65391591343930
O           0.85322749344510    0.46241400327172   -1.66408171939246
O           1.06030477222733   -0.89138150673549    1.65580484582276
H           1.26917116134615   -1.56259903477324    2.30679066149703
O          -1.20763331698094    0.51063122965099    1.33021252742018
H          -0.99287907857524    1.39526534430458    1.63669023501970
H          -1.40897722989840    0.81756924415960   -0.24467380106292
H          -0.40983375190592   -0.04116476892568    1.49220198241885
O           2.43802504131943    1.30171127361007    0.91903195682562
H           2.05501441229605    0.43688759315206    1.17883809132766
H           1.24168991083591    1.98439157458622    0.11158229854692
H           2.68989762073923    1.75730446364798    1.72495805929009
O           0.75078823850285   -2.00240630936651   -0.61138772834447
H           0.95190382099659   -1.21892087633384   -1.15521601410831
H           0.98732679009917   -1.38228751572528    0.76128033794863
H          -0.22532307773830   -2.11200002307989   -0.68983549010426
N          -1.97148865242580   -1.85621806184769   -0.75928766258812
H          -2.31291445461393   -1.51650013455880    0.13207984337002
H          -2.58876044987265   -2.59531262384774   -1.07120380707580
H          -2.04302173194753   -1.08759364926472   -1.41714815922218
