    23
        -45.35323597  Gyration_radius:  2.35127267526 Dipole_moment: 7.313
 S          -1.15000401938641    1.07437893795977   -1.58953122084221
O           0.15649769940296    1.51129845117932   -1.18630712532629
O          -1.10872263464822   -0.47047082305419   -1.81845810127985
O          -2.09194775626869    1.16360236835512   -0.34107275961692
O          -1.73792344142771    1.68228497712781   -2.72303558036742
O           0.69116577201108    0.03472230664972    2.04497031494655
H           1.21803570807039   -0.23316755742062    2.79897080168203
O          -0.88500658007955    2.19032750231871    1.70129098762531
H          -0.21906666283743    1.49199891951555    1.87750600375118
H          -1.61269239494192    1.65619012585828    0.38427869994251
H          -1.44842450644125    2.25050725668797    2.47554985635653
O           2.20691281677422    0.26949225340960    0.01607091473074
H           1.35010915026013    0.15398186884770    1.27145348658775
H           2.10415754021522   -0.58933570708174   -0.45608024564049
H           1.64330500991864    0.88965445658194   -0.48181711299020
O          -1.07859792618781   -1.39514604699585    0.61762608208211
H          -1.03800012992811   -0.88925267695303   -0.91736728684014
H          -0.41215201467237   -0.92791960025548    1.16961156512666
H          -1.93657470379714   -1.04895777306516    0.87566893252828
N           1.47845572111770   -2.01351660779911   -1.29138045558839
H           0.89026080241873   -1.59522794700979   -2.00393139708099
H           0.87038294787364   -2.54398246411828   -0.67868056323446
H           2.10982959255175   -2.66146223073931   -1.74533578655341
