    23
        -45.36514200  Gyration_radius:  2.28491067038 Dipole_moment: 7.085
 S           0.82861636096145    1.75329782419719   -0.19535938860440
O           1.03711214872088    3.05881295892563   -0.71580653652003
O           1.41725765597872    1.66026590297815    1.25467045924228
O          -0.58768394284941    1.37392908298652   -0.08875222560338
O           1.52581258857329    0.68785335331381   -0.97772421187880
O          -0.77595230515168   -1.85036447612797    1.35239489148300
H          -1.08548424322855   -2.53336516257646    1.94871328166727
O          -1.06051492225732    0.56626579902341    2.35674896094953
H          -0.94664285257523   -0.98284988987666    1.80832213835363
H          -0.34483768555083    0.93255027870676    2.88161989022060
H          -0.97654040680590    0.99602920560896    1.47355691059546
O           1.82262736163138   -0.91781240826165    1.10140090378484
H           0.97264075544331   -1.38636830597771    1.16960790917762
H           1.89763326294117   -0.61100780481164    0.18130827858674
H           1.63671284432785    0.70288079475315    1.37222997986764
O          -1.87674590142183   -0.77127519675996   -0.91485815107239
H          -1.65811503978453    0.12185810455084   -0.56955977098477
H          -0.86354440666193   -0.62736817412781   -2.04203007676936
H          -1.57546812684930   -1.36747473875796   -0.20479085401152
N          -0.05193514477331   -0.30338850758372   -2.68587240228630
H          -0.38169958515653    0.41708198593042   -3.32031732096345
H           0.36535604332398   -1.07139861778436   -3.20130552329773
H           0.68139555116403    0.15184801167140   -1.98419716193653
