    23
        -45.36401752  Gyration_radius:  2.40209896579 Dipole_moment: 1.950
 S           0.11294204686767   -0.12929387052253   -1.36330988026524
O          -0.79306905630319    0.81507523422109   -1.94666260045412
O           0.88789475864646   -0.94827121821750   -2.23474358240337
O           1.05523159218169    0.65612101444262   -0.41109498907758
O          -0.66626077781673   -1.05876746724284   -0.40449761728022
O          -0.27072676743942    2.28141530203643    1.45599111642194
H           0.41830901976244    1.89218567204760    0.90085739186202
O          -2.15736436645884    2.62825098131726   -0.58774634773939
H          -1.65036308455769    2.00884608889170   -1.15491980594107
H          -2.58065435905536    3.24744619605767   -1.18382983797246
H          -0.82344221177655    2.80865458912084    0.86034904702065
O           2.80921141807705   -1.11343447560610   -0.35052507391064
H           2.38362372083916   -1.79807833508935    0.23664396198114
H           2.55076928275194   -1.35244873220581   -1.25316495434295
H           1.86907942643762    0.02063205651907   -0.29139192997714
O          -2.07477988596028    0.38966103974127    1.09364128368660
H          -2.60367858426821    0.96231142994094    0.52049333556800
H          -1.28467011682050   -0.49825485509396    0.21286402106049
H          -1.40515521993426    1.00845885974928    1.48192708848981
N           1.27333753584905   -2.82148209808014    1.01265796725253
H           1.17790626565026   -2.70851943158407    2.01393653982117
H           1.35031693161746   -3.81132547958741    0.81600036661483
H           0.42154242166496   -2.47918250082207    0.57652450966286
