    23
        -45.36399012  Gyration_radius:  2.41598614101 Dipole_moment: 2.005
 S          -0.87026374422785    0.14590588206856   -0.65590958644986
O          -1.80668525211154   -0.73794857492161   -1.26992765088258
O           0.53485293925963   -0.20753792482609   -1.17265530611252
O          -1.09967502369642    1.55414394251764   -0.79581885651490
O          -0.79729305663808   -0.14505130375041    0.86730041207650
O           1.01761438095548    1.49373061027929    2.27400533554238
H           0.30142607196643    0.87701437577055    2.07350618011973
O          -1.01543950788620   -2.64845048432075    1.03358255613840
H          -0.61739248537858   -2.92725159980652    0.15111420741721
H          -0.86253948812578   -1.16567881887654    0.99614751834300
H          -1.95905385241269   -2.80942743563463    0.95685737257402
O           0.27475690888013    3.46060960045516    0.41209293879575
H          -0.13119361818761    4.31513138043892    0.26173489717369
H          -0.30136858521725    2.80300958150613   -0.03340150885411
H           0.70057866472098    2.36735805133484    2.00174148943610
O           2.13569993007709    1.43403327807766   -0.12551234681871
H           1.79962545851979    2.32109269204982   -0.31676488898384
H           1.96289773311904    1.32584849130390    0.84210277104774
H           1.22634858548841    0.45435989875825   -0.78496678885115
N          -0.16709743547180   -3.04697828243129   -1.41926697802792
H          -0.78801768258999   -2.29601180130800   -1.71689939120567
H          -0.31749403670919   -3.84955495972382   -2.01750223958886
H           0.77971309570326   -2.71834658048942   -1.56156013668099
