    23
        -45.36401748  Gyration_radius:  2.40246748324 Dipole_moment: 1.943
 S          -1.34227013694384   -0.26384208626857   -0.07754437684844
O          -0.20754440230874   -0.89552105605477   -0.92878621651062
O          -1.64770713959651   -1.18064398652406    0.98037930549422
O          -0.67820978625106    0.99905785183068    0.51796419924107
O          -2.40203891505847    0.15863369916391   -0.93140043287849
O           2.02755240248772   -1.73018321818737    0.55211421575853
H           1.38975439326332   -1.61620189983624   -0.16525244611711
O           1.15258598413023    0.24448866607863    2.06885999401575
H           0.06615394183884    0.72867734702144    1.18926752643935
H           0.75576189626675   -0.37541746977107    2.69696813641814
H           1.69911147821989   -0.33953541104672    1.48397326601203
O           0.14961929859767   -2.32587143506970    2.54654211712919
H          -0.25668165659217   -3.00739392838894    3.08342873204457
H          -0.56335875900202   -1.96955852441851    1.97455032420216
H           1.59722016749669   -2.30855101741235    1.19906963232695
O          -0.63136267618736    0.52791944189429   -2.93019871356674
H          -1.56609577574691    0.54783981758757   -2.67607804875998
H          -0.25854872383443    1.40457666394665   -2.63512772170183
H          -0.26523765453827   -0.38588990736026   -1.83303534278283
N           0.19557475624958    2.76095863545456   -1.72038700238663
H           1.18752509077643    2.94925369328920   -1.64965736507633
H          -0.12866568436959    2.44535868407984   -0.81033125903718
H          -0.27313808886636    3.63184543001309   -1.93531853339616
