    23
        -45.36514201  Gyration_radius:  2.28492347448 Dipole_moment: 7.085
 S           0.15925571082676    1.91116476412451    0.34757466355778
O           1.17598528225493    1.63698535256156    1.50895766750171
O          -0.96827495432987    0.99287377688030    0.56348216674702
O          -0.20859519402011    3.28353306581638    0.34491817773562
O           0.85803250620764    1.48510044169662   -0.90284269670855
O           0.28340903959627   -2.31393136038816    0.64891008820060
H           0.39799639196729   -3.20548696610555    0.98041482717608
O          -0.37793814446918   -0.61275032351305    2.54589420104382
H           0.01442694075612   -1.75812323005107    1.42884598290208
H           0.32279209319317   -0.16591894535822    3.02669279773651
H          -0.71057510171726    0.05338346827802    1.89984049604033
O           2.26380811042223   -0.40663895082122    0.29466839494495
H           1.66057741199021   -1.16899543910560    0.33463088389382
H           1.94823545825620    0.15955596403866   -0.43070080466762
H           1.69724359641159    0.85406960225099    1.20249629114012
O          -1.74792608745454   -1.14177131332003   -0.77117660437178
H          -1.70906146462483   -0.37833576473992   -0.15442486844848
H          -1.23588989135023   -0.28838583190686   -1.92330281727063
H          -1.07360952175705   -1.75111181910412   -0.41846011879657
N          -0.80620073310320    0.50141791365771   -2.53139386815925
H          -0.06020694967629    0.98090899894927   -1.85984398665429
H          -1.51955445861435    1.18567615224005   -2.76219071716877
H          -0.36393006076560    0.14678042391961   -3.37299015637363
