    23
        -45.36401759  Gyration_radius:  2.4015566333 Dipole_moment: 1.948
 S          -0.32420840028155    1.32892460021800    0.14722036755370
O          -1.52308520461161    2.04394364400173    0.43375111366329
O          -0.58307334250609    0.44378762768290   -1.09361857934146
O           0.88195069683810    2.07704036524674   -0.04898604140413
O          -0.05280420962378    0.29421314384456    1.27290405602561
O           2.22453951694695   -1.29867849798330    0.87185907801903
H           1.46939086585983   -0.86245503657445    1.28876894609667
O           1.55131921224353   -0.77582117377290   -1.62595312205309
H           0.28593772581328   -0.05523499029915   -1.36460747256378
H           2.24743698837741   -0.10834914645841   -1.70446041066255
H           1.75953771894685   -1.22495666202070   -0.76757729486128
O          -2.46123239577570   -0.09441898953890    1.78197504597456
H          -2.74415962703246   -0.64885136252933    1.00265710682935
H          -1.00401338395579    0.03246792130512    1.60058091704132
H          -2.62998619420236    0.82288113841452    1.51975146407987
O           3.28212397798623    1.00299330180374   -0.33000742509513
H           2.89352894472026   -0.60895124742629    0.74962708630919
H           3.95945288097391    1.67975186129103   -0.29707931413249
H           2.42847552693809    1.46576715370450   -0.18981886335661
N          -2.92839141400817   -1.31121174468692   -0.54916881983844
H          -3.82430436310285   -1.17459651488708   -0.99980206401630
H          -2.66807571578875   -2.28302480696974   -0.65978104885038
H          -2.24035980474076   -0.74522056436360   -1.03823475542867
