    23
        -45.36401756  Gyration_radius:  2.40241660351 Dipole_moment: 1.950
 S          -0.94010233638975    0.06803209456044    0.99671369133910
O          -1.97373216490148   -0.79454106314448    1.46386244336468
O          -0.75658151984653    1.32655702279515    1.65653415552684
O           0.42002812425939   -0.68038784336731    1.03423845938059
O          -1.16934269257582    0.31196774960909   -0.51259752174729
O           2.59722081142983    0.81320151401123    0.07766620221898
H           2.07243224914140    0.12945135749405    0.51526580315158
O           0.62632153642865    1.87861438088257   -1.31717837803083
H          -0.46336370794431    0.97989346890903   -0.87765367317462
H           0.60226940279940    2.65715827822609   -0.74312875834561
H           1.45564475789136    1.41333521567696   -1.03847281375283
O           1.23200867543661    3.00239459582609    1.17505167764297
H           2.52047432203350    1.60201910647754    0.63452140365443
H           1.24299072170041    3.70724245773871    1.82376773583331
H           0.49505025913515    2.40808889327743    1.43203594288555
O          -0.56800128560003   -2.92746750566952    0.60191812659156
H          -1.36453572936385   -2.62857686794354    1.06545077418891
H          -0.78852172580237   -2.86682600549969   -0.36873792280681
H           0.15950894614707   -1.67260446545542    0.86735291548941
N          -1.26848186236153   -2.32155662549803   -1.90359832265309
H          -0.56982446353618   -2.35511819983246   -2.63516556206477
H          -1.43322909518142   -1.34559405453970   -1.67280017576791
H          -2.12823324292582   -2.70528349453842   -2.27504622292325
