    23
        -45.36514187  Gyration_radius:  2.28485998989 Dipole_moment: 7.092
 S          -0.13090865021529    1.43330949713986    1.31465453330590
O           0.27120650105196    1.47031543676116   -0.09884390055650
O          -1.69383123321153    1.31019248485636    1.32245686053356
O           0.37257639552033    0.15193826814745    1.89608639029120
O           0.26439907789882    2.57927156744565    2.05572019011427
O          -0.97012359575514   -1.43570862520248   -1.68711364084012
H          -1.41063286580973   -1.95067990690350   -2.36430637580778
O          -1.84292932716243    1.04591248352968   -1.58456356999824
H          -1.34907448006567   -0.51765857328457   -1.74352555250225
H          -2.58972721602285    1.24650731102897   -1.01543849529446
H          -1.05073479836251    1.35549858221905   -1.08622846663456
O           1.52440040171879   -0.30189551288856   -1.59390781564338
H           1.11292677401539    0.52373192502318   -1.25649549706094
H           2.22282734705869   -0.54574525081667   -0.26311393167933
H           0.76155474679963   -0.89180001443948   -1.73726140139212
O          -1.65655437761109   -1.28312996609249    0.99451601082078
H          -0.82515163192652   -1.09204180983061    1.46183456367411
H          -1.86704992864400    0.34348113692482    1.20386082836062
H          -1.41685472138867   -1.49088666926219    0.07470968566721
N           2.53682883292453   -0.51832176904772    0.77544576880054
H           2.88101572661363   -1.41569388456956    1.10089659688801
H           1.61697394726700   -0.21995929810456    1.32581785005991
H           3.23886309530747    0.20336258736467    0.90479937889336
