    23
        -45.36140464  Gyration_radius:  2.48250058379 Dipole_moment: 3.037
 S          -0.31309494009353    1.33121299918069   -0.36070876108799
O           0.53467976887110    0.62156865949097    0.73598205881710
O          -1.53672784394409    1.81255745842182    0.19992615429664
O           0.56401984086646    2.51735989723560   -0.74614293741769
O          -0.46738159758015    0.41012377429839   -1.45836891984285
O          -2.15930232081632   -2.09407891307548    1.70824563717051
H          -1.96170378970753   -2.39813599945634    2.59570369498838
O          -2.96004972033953    0.43665764193012    1.97923671194786
H          -2.40901775759203    0.99132956909491    1.39041524047578
H          -3.86858725747925    0.65679296683280    1.76443090705339
H          -2.50043865027800   -1.17509135834751    1.80685570259087
O           2.89293728828866    1.54206170288753   -0.63341431861594
H           2.91236536848939    1.27629581775230    0.28999660512504
H           2.74834911547934    0.69993028219857   -1.16430212641367
H           1.54457047622518    2.20732390026131   -0.75876248725376
O          -0.06868806614149   -1.75285519921718    0.13566851552402
H          -0.44941446147952   -1.40477056165494   -0.68326439692243
H           0.38006190611717   -0.38184350920821    0.61202524024476
H          -0.83876548535216   -1.99226613086891    0.71237297282540
N           2.14778834897604   -0.63468428085665   -1.91657136826169
H           2.12661967809393   -1.47972990634876   -1.35814395276076
H           2.49751086675094   -0.87413246045011   -2.83536147172470
H           1.18426920264253   -0.31562635009322   -2.01581869074083
