    23
        -45.36140460  Gyration_radius:  2.48253173758 Dipole_moment: 3.040
 S           0.80071101625388    0.02991710460185    1.16563829542082
O           0.67826281923857    0.81316823953217    2.46814380618923
O           2.17495613229897   -0.28900802069292    0.93528782846637
O          -0.09798162594279   -1.09649925349293    1.14052422917850
O           0.30423268030781    1.05420136067837    0.10296091434140
O           1.10260643513823   -1.15387718946457   -3.06896575636109
H           1.19335773510239   -0.56535750585090   -3.82027632938040
O           3.19671032998047   -0.63934448974883   -1.49757304045996
H           2.85840188238498   -0.43284950682972   -0.60265876481951
H           3.85557877609704   -1.32503802316310   -1.37174469085338
H           1.89826780115876   -1.00144720850063   -2.50829342775679
O          -0.87040634998589   -0.58387615131130   -1.41309106689365
H          -0.77739141815926   -1.24006370600872   -0.70777033062066
H          -0.20432524571187    0.51281392260485   -0.60038868224478
H          -0.20817798518361   -0.83572426720245   -2.10670502603270
O          -1.44142362494746    2.14375627299893    2.11492633340993
H          -1.18941999926687    2.64466801203255    1.33436519704667
H          -2.04893013741279    1.40962127688757    1.79265207676352
H          -0.18486176876496    1.37116871181185    2.43287200397578
N          -2.71240844233624    0.04589672837587    1.15368045578590
H          -1.90587266187620   -0.56743383954083    1.26903737146452
H          -2.92039153163337    0.08303137090585    0.16285189907100
H          -3.50149482672800   -0.37772384863788    1.62452668432806
