    23
        -45.36140466  Gyration_radius:  2.48262812815 Dipole_moment: 3.041
 S          -0.67077508988715    0.45876472147249    1.15791929244308
O          -2.08877531568950    0.23569815672536    1.67201385728501
O          -0.31790752707107   -0.91770686306515    0.52080411699068
O          -0.63860053218563    1.44702111922011    0.10936054125978
O           0.19508512340054    0.72392830522332    2.26387581668747
O           3.44320328128460   -0.07369437959804   -0.33408250250470
H           3.92077015489773   -0.90156018481490   -0.40953273799582
O           1.03866441676952   -0.04689552590016   -1.41921018701971
H           1.98283412225854   -0.05360522407860   -1.11671574940832
H           0.25295154720245   -0.71368353329288   -0.30300839907146
H           0.69917419835605    0.83432096150754   -1.20736915459213
O          -3.10614966090761   -1.21913998654040   -0.12671689191269
H          -2.83386605212218   -0.69465902730092   -0.94090341651695
H          -2.51091739136357   -1.97243367267483   -0.08211308819392
H          -2.60036951841747   -0.32993086418949    0.98186020730940
O           2.79388130447362    0.14846001301770    2.24429726659911
H           3.18806026482483    0.85664479998724    2.75739360659032
H           1.82705523485904    0.29016969807929    2.30060122659384
H           3.24194646715523    0.03621919635303    0.62413079663838
N          -2.10451646789628    0.28405897990184   -2.04412373983510
H          -1.66574568362991    0.92944254152122   -1.38758629514376
H          -2.68420445128706    0.82134769957671   -2.67586851926506
H          -1.36179841504926   -0.14276694110850   -2.58502605696727
