    23
        -45.36140461  Gyration_radius:  2.48230147849 Dipole_moment: 3.038
 S           1.13422734952556   -0.21335250358834    0.81925401398357
O           2.46164466833256   -0.91766444389185    0.56050855651220
O           0.07756852755115   -1.15790391360299    1.08107697695331
O           1.31776051905965    0.78195572776647    1.82863885081556
O           0.83416232318786    0.46359568317115   -0.55068030761577
O          -2.38873265888863    2.42855860188698    0.60455602897770
H          -2.51167642428267    3.16747528902435    0.00627521278272
O          -0.17253342555314    2.98190377437838    1.98323563264294
H          -1.59810724579513    2.64974150594508    1.14932037185938
H          -0.24561843589077    3.14280129444922    2.92599065284693
H           0.43731764700787    2.22170095565735    1.89284140177888
O          -1.66947721731902    0.15817719369037   -0.53002327120164
H          -0.17954087117275    0.41430931283325   -0.67804900049965
H          -1.54789710725977   -0.44562889607482    0.21654059932869
H          -2.04282159448216    0.99258762764257   -0.14609678451082
O           2.20240470100906   -1.72585023463667   -1.82009233797413
H           1.29464690238986   -2.15428126168590   -1.75396450170619
H           2.06939538526236   -0.88335717706134   -2.26302491741967
H           2.44077541338803   -1.31347360135030   -0.38858929107139
N          -0.23740299889623   -2.60528072228298   -1.35739095803319
H          -0.21722007339737   -2.31843682011317   -0.37897580122430
H          -0.48063795035254   -3.58676631617182   -1.39400162845832
H          -0.97823744342930   -2.08081107599593   -1.80734949877300
