    23
        -45.36514198  Gyration_radius:  2.28513096576 Dipole_moment: 7.090
 S           0.86412944832686    1.00011440173881   -1.43260963217560
O           1.53655675206441    2.08339014801203   -2.05963163650745
O          -0.15679179689720    1.41593324431238   -0.46005736786576
O           0.11728892176940    0.14313096607172   -2.51227677463290
O           1.78973920550896    0.05198857722109   -0.74143690003083
O          -1.72861946901289   -1.48105812444037    0.82263606133028
H          -2.45513656656800   -2.04737815819147    1.08600009550973
O          -2.41728322930315    0.23400197634426   -1.05253564244470
H          -1.64114520454636    0.81489698314948   -0.87400360618894
H          -2.32654161097841   -0.02850269266212   -1.97163603174700
H          -2.09267877807741   -0.86042352653669    0.13582073720101
O          -0.57018115057630    0.68674259954739    2.03805978161221
H          -0.98858844206688   -0.17129497378940    1.84047530653526
H           0.95084394679343    0.63135337474169    2.00240007022482
H          -0.59939271488074    1.15739178602795    1.17637619181891
O           0.21018302106788   -2.04110540318926   -1.07831465250484
H           0.06179964909387   -0.76106094133299   -2.11506240289099
H           0.99614590470681   -1.54065868330629   -0.79877435813507
H          -0.43100191679044   -1.98120710273254   -0.34897574867761
N           1.99331430570241    0.66569530615559    1.70215711957258
H           2.56868379387720    0.01045491828778    2.22110138366126
H           2.34958585259352    1.61117362701402    1.79971541014562
H           1.96909006819349    0.40642168755562    0.62057258619024
