    23
        -45.36293463  Gyration_radius:  2.4834005067 Dipole_moment: 1.869
 S           0.16865552654648    0.87204887005601   -0.50744157425420
O           1.14997562737073   -0.12034222948391    0.15810534994367
O          -0.07014583680585    1.93271631030976    0.43292234543971
O           0.65141357888343    1.24381843510078   -1.79719944433709
O          -1.11919729454261    0.03442009094266   -0.68022072618243
O          -1.28268310780744   -0.30852217608642    3.29647300727572
H          -1.56574819493231   -0.11191403938008    4.19085376058081
O          -2.45883949056875    0.89740132385008    1.25593511572597
H          -1.93243477630692    1.70807497263129    1.26117685007034
H          -1.76723366705534    0.30416838174186    0.07822942925839
H          -2.14566221851662    0.36893614527947    2.03355892306710
O           0.96719375381115    1.00934736530196    2.74320136527110
H           1.61387278184141    0.39688480757396    2.38255772826689
H           0.64239817364698    1.50884287310458    1.97121448522536
H          -0.40534615436799    0.12826243191757    3.17970467020624
O           0.69520006642075   -2.13780062900132   -1.27920863516288
H           0.95024321994498   -1.79911788701645   -2.19116784457418
H           1.07159925417094   -0.99327104614897   -0.38024097057561
H          -0.26564662842238   -2.10950863899674   -1.24507668573874
N           1.23608796993746   -0.91379166081723   -3.55132130086089
H           0.61585458187735   -0.98986699521101   -4.34767119900824
H           2.18670256912926   -0.90984450607315   -3.89863353085305
H           1.06374027572455   -0.01094218955781   -3.10575111875471
