    23
        -45.36293460  Gyration_radius:  2.48403208484 Dipole_moment: 1.870
 S           0.22181734932482    0.94382222166236   -0.32209919972754
O          -0.11744588044916    1.76468593581554   -1.43825378555646
O           0.98479091720049    1.55474893700446    0.73193152064138
O          -1.06138322179459    0.36321492722637    0.31599408213189
O           0.96224644872830   -0.31268756216380   -0.83498285177103
O           1.21170211325310   -1.56143849700597    2.95459183604569
H           1.61298930998692   -1.70926159756062    3.81237485835125
O          -0.20765226940309    0.69433615672220    2.99096269207686
H          -1.08602536541915    0.52337339959250    2.64083938742246
H           0.62909815966184   -0.77081896846629    3.05236907330268
H           0.25964374214326    1.15774075534577    2.27135311698527
O           2.67230590197836   -0.57709915167747    0.97988649501067
H           1.70932563091824   -0.53032492968264   -0.15506972640494
H           2.58143536218224    0.35889181240618    1.20349118922612
H           2.20307228600645   -1.07169244941392    1.69908797844879
O          -1.68555558955881   -1.27327323855067   -1.49335511004416
H          -1.81698565792251   -0.66316150316934   -2.28213504187551
H          -0.81985467937159   -1.67575040541335   -1.61071231065906
H          -1.43069222992991   -0.31203816540369   -0.36664013386973
N          -1.75465461688503    0.53694144729879   -3.40909913793250
H          -2.61719802944923    1.03489161637419   -3.58902155663602
H          -1.29790005603800    0.37762339967867   -4.29827124961544
H          -1.15307962501183    1.14727586937238   -2.85324211545601
