    23
        -45.36140460  Gyration_radius:  2.48246086797 Dipole_moment: 3.036
 S           0.96734575067250    0.95917182267965   -0.38128553893264
O          -0.30699939256328    1.55394594584173   -0.06591841252707
O           1.47249669124342    1.41203184171689   -1.74670514588479
O           1.99051856829830    1.17222447072242    0.59390958046609
O           0.73767312929314   -0.56667103874512   -0.59094655561736
O          -0.18128873890201   -1.40892840167115    3.15513736018665
H          -0.01438612857076   -2.34243967578058    3.29566537989897
O          -1.31650049471164   -0.79395440712934    0.85462736513265
H          -0.09029145541646   -0.80932137972549   -0.04134641044575
H          -0.99072403685308   -1.06429603806732    1.75122207637780
H          -1.36172525384373    0.17272981499528    0.86976818437932
O           0.09712610586442    0.00920567797884   -3.33670577611990
H           0.36355407373655   -0.86824923202850   -3.04895474661178
H          -0.81827481885062    0.16497834489519   -2.94976507541194
H           0.94258282320366    0.91178904317443   -2.47247896287982
O           2.21817654404140   -0.29712224372241    2.80151288517244
H           2.53954662561371    0.32399171965157    3.45797816037635
H           0.70426874386155   -0.98532856879764    3.07124814568135
H           2.19995585609654    0.19827432819884    1.95759217036253
N          -2.11845939455785    0.48426502278796   -1.99295469170532
H          -2.49953143968277   -0.30964300600917   -1.49213550379988
H          -2.89043284157263    1.01051495052239   -2.38142412116915
H          -1.64463091641083    1.07283100851200   -1.30804035692347
