    23
        -45.36140461  Gyration_radius:  2.48252865672 Dipole_moment: 3.037
 S           0.38890667135838    1.24576759412192   -0.54523553928308
O           0.85154906382060    1.64882625314792   -1.94101660174091
O           1.02548781664553   -0.16433532679630   -0.36839953348938
O           0.93548055358756    2.15483183450569    0.41288420295460
O          -1.04269920891261    1.08953714320800   -0.48813801943439
O          -0.06114487727516   -0.68766230103717    3.39033856222280
H           0.53127160716190   -1.33345281104202    3.77897975097061
O           0.74972752321574   -0.53466347815738   -3.20958655581645
H           1.36638664917921   -1.05440196689529   -2.68677584283171
H          -0.17081073990987   -0.84063449886704   -2.94347134215492
H           0.81451654911028    0.82002525099402   -2.54900127622071
O          -0.86069632797413   -1.21828436683588    0.93283979072049
H          -0.63060871660822   -1.10063964519183    1.89001064471151
H          -1.39924346957932   -0.45048774695338    0.69371776585370
H           0.34959613834889   -0.71842113974815    0.16311716127553
O           1.43361368323622    1.47573767747529    2.93792288382213
H           1.33494652111417    1.71861268781349    1.99487526960975
H           1.24539667562624    2.27676030890106    3.43089945305227
H           0.47423365166576    0.12984567143088    3.26491618141456
N          -1.61103080516415   -1.12217832178277   -2.19861534230596
H          -1.65801182844139   -0.25900680245905   -1.65754069352236
H          -1.61973509694234   -1.89000189346201   -1.53777436388868
H          -2.44713200326246   -1.18577413235433   -2.76494654592723
