    23
        -45.36293434  Gyration_radius:  2.48221399274 Dipole_moment: 1.878
 S          -0.57786552612982   -0.58679497602558   -0.61394531639090
O          -0.39235918620624    0.94752299862452   -0.57426262201566
O           0.66340371584316   -1.11293056202704    0.14298851317828
O          -1.76452928401733   -0.89386597104301    0.13697087340540
O          -0.52449806146875   -1.04983176750453   -1.96206482329580
O          -0.65805425939529    0.79254546295277    3.39645657115044
H          -1.09532591262016    0.89798192772294    4.24290403152482
O          -2.34125205970992    1.40395252917697    1.42216667384356
H          -1.91799931091096    2.02250518333653    0.82084501916644
H          -2.31533790520652    0.54809830543863    0.95547291863465
H          -1.29148897327207    1.11865323355352    2.71341146817615
O           2.05437181745842    1.06448273549781   -1.15740939939063
H           0.58847205329797    1.11829366024273   -0.83454239576730
H           2.37099842048196    0.39919445082163   -0.53908230502044
H           2.06605457972486    0.62808323607908   -2.06387801508106
O          -0.37245129585800   -1.62874198544724    2.36783573573800
H          -1.24132152300492   -1.69749714160775    1.94990014035003
H           0.35932323733068   -1.36436583318236    1.09800703217896
H          -0.37471912312358   -0.76334177362630    2.85082666934182
N           1.80353983882263   -0.29359080220360   -3.40242499795857
H           0.92606970399909   -0.69347825483613   -3.06532947686751
H           2.42873551140590   -1.05875737714739   -3.62224647879807
H           1.60623354257325    0.20188271123752   -4.26259980610301
