    23
        -45.36401759  Gyration_radius:  2.40210338369 Dipole_moment: 1.951
 S          -0.99840321567164    0.32690899659106   -0.88510820654909
O          -0.39191056667316   -1.07505832882448   -0.64658160268546
O          -2.41735888354527    0.19554275003025   -0.89262589245568
O          -0.55561418598026    1.12532575724548    0.37107966755357
O          -0.36640084406555    0.92844409155300   -2.02167540583758
O           2.22322676170033    1.43462828898014    0.63241674231839
H           1.27032188940166    1.54718940356468    0.74949978642983
O           2.20507407826367    1.52860040291953   -2.16912798454515
H           1.23687617247824    1.37052549854221   -2.16398929271394
H           2.43192691385735    1.82808468459190   -0.22776932027721
H           2.38395204906713    2.05375317159858   -2.95019938761340
O           2.11258562582926   -0.84688920764161   -0.68937021881069
H           2.34404440073108   -0.41009167898091   -1.52114300197607
H           2.27368249065050   -0.14496381464245   -0.00864022444775
H           0.64438820049471   -1.02829246934219   -0.68695917901783
O          -2.43123643595232    0.31877162431815    1.80041924698701
H          -2.14835306452154   -0.61790909041007    1.99334653187240
H          -1.27516656489249    0.88462689031885    1.08159429266057
H          -2.97291771217721    0.26371880937473    0.99901289746018
N          -1.51194844045793   -2.18787559479892    1.88051462076797
H          -0.76345592813148   -2.42013928454177    2.52099413548808
H          -1.11623556654830   -2.12418507155007    0.94655781040991
H          -2.17707715383963   -2.95071582886970    1.88775399501583
