    23
        -45.36140460  Gyration_radius:  2.48250656752 Dipole_moment: 3.034
 S          -1.37229968799545    0.13619482764260    0.31570638451905
O          -1.15466586527420   -0.60679377318545   -0.89997927453874
O          -2.35999870836195    1.27814134193828    0.10301192296930
O          -1.79193241827196   -0.64739848294389    1.43505419550524
O          -0.05034260665691    0.88662373692339    0.65375391594311
O           2.09840280631859   -2.32068200502542    1.47670873286528
H           2.82680699325687   -2.04838082745879    2.03738886599853
O           1.53325487067085   -0.68872970491573   -0.51759332216208
H           0.75794824384705   -1.09133097044281   -0.93420765356096
H           0.70425714283854    0.34105767665172    0.23040672554351
H           1.83630413481463   -1.33341475767841    0.17196652254406
O          -0.94383170927191    3.02267374567074   -1.05409167277403
H          -0.52033759472279    2.45121392738947   -1.76546251445063
H          -1.87780537526047    2.03653532066315   -0.39711828738932
H          -0.27045081012991    3.15560248510632   -0.38132969961652
O          -0.09874075434406   -2.02207168792779    2.96076518102843
H          -0.72475857940429   -1.45860579341038    2.46223218096654
H          -0.59697293968024   -2.80304680722668    3.20951405892040
H           1.28894205117650   -2.25792423781985    2.03489031829796
N           0.10884002425156    1.23383103360907   -2.67654521039756
H          -0.42964905891060    0.46739883384534   -2.27337680211424
H           1.08778710013312    1.02829111748841   -2.51598810057407
H          -0.05075725903128    1.24081499113632   -3.67570643752259
