    23
        -45.36514202  Gyration_radius:  2.28510974251 Dipole_moment: 7.088
 S          -0.03765199714137    1.91891314736105   -0.33925798950040
O           0.07736761607121    3.12551812269497   -1.08065956930923
O           0.14663480943742    2.21588883222353    1.18903665135810
O          -1.38194541538818    1.27753728705192   -0.46135439146786
O           0.97213196877150    0.90846027296562   -0.68609233540974
O           0.50436728941445   -1.90654094016328    1.40367551614816
H           0.75452705724731   -2.61567793727049    1.99733058687475
O          -1.27760399395404    0.15176431812273    1.92845000986666
H          -0.76699066229008   -0.66478091818834    1.79018308974925
H          -0.35377145831718    1.49370974764057    1.64340897712662
H          -1.64797378382728    0.39744205219690    1.06311649263075
O           2.17197284639262    0.12822263723763    1.50684081373392
H           2.00499852820631    0.82758036104637    2.14315133562579
H           1.20200239649247   -1.20383210657658    1.49794873268057
H           1.86241174862016    0.48829718621790    0.64305220424452
O           0.73015650460674   -1.63885604154983   -1.31574444493727
H          -0.53920003442204   -1.09387300569414   -1.95585355682292
H           1.07990371055397   -0.73180619556434   -1.17511305099319
H           0.58983382714360   -1.96934109329343   -0.40941147499087
N          -1.34979048158277   -0.45845257676237   -2.29826248518122
H          -2.22917212027010   -0.95874468827202   -2.37606332768629
H          -1.10149641499630   -0.02969945967935   -3.18418909888155
H          -1.41071194076852    0.33827101825657   -1.52419270485951
