    23
        -45.36293460  Gyration_radius:  2.48411648756 Dipole_moment: 1.869
 S          -0.32473488882003    0.33486848802621   -0.90901908159029
O           1.02923078063014   -0.27203669591328   -0.47374211275327
O          -1.28969109054543   -0.11026489562693    0.21377736740379
O          -0.18104287081262    1.76481294943763   -0.88081356841960
O          -0.74862898404918   -0.25147660185957   -2.13825738821426
O           0.92184089091160    2.01047765399833    2.78312880285024
H           1.16890417945943    2.75820334521182    3.32951494483842
O          -1.41504756855584    2.01285279177462    1.54213639129323
H          -1.14873031099219    2.51803700871293    0.76227766763738
H          -1.42360150199424    0.69728200037130    0.84434842796528
H          -0.61893920146079    1.98995576539004    2.13184421471246
O           2.14548951375520    2.16658659560146    0.42026397382959
H           1.47049060528344    2.07024675567448    1.96489720547530
H           2.57172525962664    1.32734780916385    0.22702897702408
H           1.34901215710243    2.17489532521638   -0.14225147603770
O           0.23125370024855   -2.57085061329311    0.17480062377787
H          -0.14970135595429   -2.90606856170150   -0.69355126535958
H           0.82624357485680   -1.24565263558849   -0.21073721553315
H          -0.52228936994512   -2.30257025253118    0.70898697196040
N          -0.86545388325044   -3.09022942401530   -2.16616748761543
H          -0.92363341294832   -2.08908819984056   -2.36033727847408
H          -1.79954751527938   -3.47419302689748   -2.23442525201532
H          -0.30314869723478   -3.51313556133038   -2.89370345274461
