    23
        -45.36401757  Gyration_radius:  2.40173408346 Dipole_moment: 1.947
 S          -0.67699526923122    0.16723297044733    1.18478525319208
O          -1.31812563315710    1.26526543190463    1.82814638300719
O          -0.68164084811022   -1.10365208758592    1.84636894917358
O          -1.29752078650588    0.01204680097241   -0.22276277734083
O           0.80235193888791    0.53091079169506    0.88391992914881
O           2.24448131087088   -1.46388697732924   -0.46723932246825
H           2.02764626071352   -0.67247296571425    0.04364998343499
O          -0.19901362443980   -1.95987453900930   -1.33253903363815
H          -0.29129166057335   -2.71195259030507   -0.73084314087273
H          -0.89044316151414   -0.81271657859180   -0.70405967203495
H           0.76307995324876   -1.73124347486205   -1.26895192663475
O           0.35923960994182    2.96370307921133    0.57453212342733
H          -0.36150760645710    2.87976719278658    1.21651324078924
H           0.77679505755229    1.55905206279138    0.73199495518957
H          -0.08270635427417    2.97488416445075   -0.31955922262047
O           0.65074158612328   -3.23112887157319    1.01390044772891
H           0.63183670749517   -3.92113092246550    1.67828872854138
H           2.09654157186927   -2.21229757801389    0.12963168942584
H           0.16776769104087   -2.46914416147935    1.39951496264595
N          -1.01875477023607    2.59455566717971   -1.68326328630923
H          -1.37646281024672    1.69432026801354   -1.37576010271920
H          -0.51694844003439    2.45093109124225   -2.55044252846677
H          -1.80907073289938    3.19683119620707   -1.87582562259412
