    23
        -45.36293459  Gyration_radius:  2.48367221918 Dipole_moment: 1.870
 S          -0.06267574003216   -0.25621067010839   -0.98770344804123
O          -0.23311035911129   -1.45687511385285   -1.73874832064297
O           1.24966622293442   -0.35807886059049   -0.17685890092860
O          -0.08132772511334    0.98141609502701   -1.71865981525738
O          -1.14945770072779   -0.15983365279888    0.10798089145965
O           0.47076165931780    3.27149242344922    1.30530612998065
H           0.52760161911334    4.22499267949726    1.38481864303307
O          -0.31429012651124   -1.97344812356301    1.64233375549766
H          -0.92238310471467   -0.89470906218770    0.79123718763028
H          -0.35686982232458   -2.78020075464982    1.04314041663341
H           0.61043053520112   -1.70979536030453    1.66667299735008
O          -1.61594747347412    2.60949878595479   -0.21535378745010
H          -2.14155294939005    1.94438459967866    0.23713394468959
H          -0.36449136474940    3.08255370959378    0.81467669324239
H          -1.12936371996066    2.11586327598968   -0.90128737786681
O           2.06799613959523    2.00343667312124   -0.38061644335993
H           1.69157019801797    0.57596377483861   -0.18512458022852
H           1.53559497160672    2.12058394552340   -1.17884456085585
H           1.59213729887186    2.49797571699553    0.33423705964371
N          -0.34028711320556   -3.84933228492872   -0.21014536465024
H           0.44867402642092   -4.46995437515327   -0.34058134871631
H          -0.29784403707024   -3.13233043905347   -0.93648640742218
H          -1.18483143468281   -4.38739298247297   -0.35712737374155
