    23
        -45.36514194  Gyration_radius:  2.28512107814 Dipole_moment: 7.092
 S           0.87919830093567    1.60814215397166   -0.66364735303436
O           1.79923589753564    2.38968205781973   -1.41302732507258
O           1.44724321633088    0.35638381159024   -0.14271677932695
O           0.38802554125916    2.41918836089905    0.58489491165388
O          -0.35858038748810    1.26198830438153   -1.42618352100114
O          -1.03088080454594   -1.28820734800040    1.77129970276720
H          -1.40114554796341   -1.75276412642134    2.52294526569837
O          -1.88457858213724    1.13464514064958    0.72881464186044
H          -1.73321752616455    0.24051567530922    1.08136089032171
H          -0.50485209125053    2.04474027561453    0.78730844390321
H          -1.65401008967983    1.10347441800214   -0.21574283015216
O           1.00753597730035    0.23965217267827    2.43613425627930
H           0.83513448633953    1.14679085070714    2.69941217991694
H          -0.26058033235212   -0.76343392985981    2.11865136400844
H           1.32849507371775    0.29935965155643    1.50604254510616
O           0.58185791235106   -2.12849763733339   -0.28072550904369
H           0.11437193244039   -1.61857012856200   -1.63692886941444
H           1.13649982992539   -1.32966547814507   -0.14207849768711
H          -0.09955144151849   -2.05269749182435    0.41228970565039
N          -0.10566314098225   -1.00871778371726   -2.50740574598536
H          -0.22382500756793    0.01670880701267   -2.09273049451584
H          -0.94848592402735   -1.30684127853492   -2.98746281999751
H           0.68777268754260   -1.01187650779310   -3.14050415193543
