    23
        -45.36293460  Gyration_radius:  2.48382022664 Dipole_moment: 1.871
 S          -0.05904786756931    0.95042078100663    0.37136140110637
O           0.80307536359422    1.75364768390298   -0.45200288768617
O           0.76118038009172   -0.27436684120942    0.83830114537317
O          -0.66418432285012    1.58854841253257    1.49446016552119
O          -1.16912217259538    0.32151572662431   -0.50172850667921
O           1.68979224387871   -1.00894972316939   -2.95866801009387
H           2.26102507367876   -1.01787751723401   -3.72830185955907
O          -0.24160542030413    0.79125610235321   -2.78363519044043
H          -0.89628811230791    0.45192969551133   -1.48981225971261
H           0.28633150226196    1.51533703004451   -2.42122887862174
H           0.39676257210173    0.05260460938618   -2.95379236830334
O          -1.14306480770309   -1.79740370248020    1.46741302074572
H          -1.67400489715152   -1.67855141731216    0.67420936662542
H           0.07042103551923   -0.96736072648189    1.15600132631699
H          -1.59895548308840   -1.26477598447911    2.18864293578908
O           2.93336109106916    0.16877034058865   -0.91633261572646
H           2.87317264204123   -0.39425810741429   -0.13997497896914
H           2.23005673386811   -0.64914508223631   -2.21518069955306
H           2.28503150550739    0.87962585060170   -0.75726704185163
N          -2.23164850304873   -0.09545692509721    3.16150637938078
H          -1.75329162340352    0.67598350460811    2.69304720390502
H          -1.93416475694725   -0.10078897548606    4.12887310866324
H          -3.22483217664501    0.09929525542523    3.14410925378662
