    23
        -45.36140462  Gyration_radius:  2.4825540858 Dipole_moment: 3.036
 S          -0.15845264062628   -1.40519188485814   -0.04760172939798
O           0.47138273289780   -2.02334751707645   -1.17207101812149
O          -0.96614794172891   -0.15551325567696   -0.50718163013835
O          -1.24702897485047   -2.32794120916452    0.48889995593189
O           0.74005304761340   -0.98472546752639    0.99793578672280
O           2.06950563689053    1.78236737165561   -2.12477291873849
H           1.71420349214980    2.40378144464159   -2.76247408247216
O          -2.83848850099846   -0.71356785429589    1.60585902187608
H          -1.93739711250317   -1.75777065487082    0.99526763105012
H          -2.18151989519408   -0.17666789858161    2.14637565052657
H          -3.07202498133868   -0.16820093008516    0.84970227917607
O           0.73177038812278    1.59336744524285    0.14131747285928
H           1.27222445787101    1.76388254415905   -0.67217550681476
H          -0.37874062860907    0.65620175517113   -0.30157159276932
H           1.19858422020626    0.89959311954704    0.62866351573545
O           1.60167197062746   -0.63847405867915   -3.14432226346821
H           2.34933530475614   -1.18007158732533   -3.40453203092592
H           1.11973955448546   -1.16148144544545   -2.47184317391557
H           1.94203029677810    0.88808923063844   -2.51821062490796
N          -0.86043864005182    0.59069768451070    2.75717279157018
H          -0.72965006948864    0.60896546400248    3.76034097381212
H          -0.69224782439017    1.52407083664635    2.40102943954429
H          -0.14836390261772   -0.01806313263537    2.35419206286250
