    23
        -45.36401754  Gyration_radius:  2.40218013658 Dipole_moment: 1.953
 S          -0.64479481100371   -0.81314167447627    0.90012099946945
O          -0.33430597550792   -1.32652607032573    2.19266983782624
O          -1.90143939451176   -1.17021244977617    0.31164508205631
O          -0.56490659461976    0.73763233181566    0.92234713127206
O           0.49972859032795   -1.21380657422208   -0.05883369936817
O          -1.06448996381636    1.96362752278938   -1.55397855946822
H          -0.93740328299121    1.82357526653139   -0.60597881960191
O          -2.84489753284764   -0.16597743361383   -1.94594438241521
H          -1.92708975639665    1.57668820874635   -1.76490047053453
H          -3.75654427109186   -0.42983451807920   -2.07668177710876
H          -2.57344297505243   -0.54559723612620   -1.08305246082988
O           1.21822589276993    0.82723409343044    2.66158862784032
H           0.16478490555027    0.93594222319268    1.63534103759966
H           0.85261876196956    0.00873402577428    3.02917213466524
H           2.02161542204439    0.54775073097299    2.14111170430603
O          -0.08021694886154   -0.35205604018087   -2.34934557022554
H           0.28297903990089   -0.90088057127523   -1.02484463007322
H          -0.96239864986657   -0.68671962729366   -2.56385394584295
H          -0.23493912247644    0.61224452333407   -2.18111828675492
N           3.07757382080401   -0.21004396253638    1.04817130888518
H           2.39783221813657   -0.77936322433429    0.55143909304199
H           3.77579434210749   -0.82781649877705    1.44219618500896
H           3.53571627538619    0.38854693444309    0.37272945021476
