    23
        -45.36399002  Gyration_radius:  2.4163732647 Dipole_moment: 2.008
 S           0.91039884976219   -0.25697000176099   -0.55872687587855
O           1.18929003534568   -1.13201698169558   -1.65029458649890
O          -0.11188351161824    0.79087326451494   -1.03141430419628
O           0.16506934060966   -1.03530797280255    0.55870501229824
O           2.02293492751503    0.39676844498228    0.06595735427208
O          -0.49046526320592    0.52683001141053    2.81477640037170
H          -0.32871714025137   -0.23006617093971    2.23651319126554
O          -1.35359008831191   -2.61179881108282   -0.68685063315666
H          -0.78253234747105   -3.34159964659180   -0.93876229054573
H          -0.49055275905850   -1.68796597896816    0.10430353553386
H          -1.51352616545702   -2.08526635956585   -1.53074839230664
O           1.90619542632080    1.87956533256119    2.25008034393469
H           2.02674528825514    1.30720228124711    1.46232273476967
H           2.78649204404834    2.11937151948691    2.54187413156722
H           0.38163416971887    0.89009088813085    3.02770786207665
O          -0.50353877514902    2.35909449083911    0.90300614159623
H          -0.77617733686718    1.74880878407493    1.63159476688173
H           0.36346845217146    2.67925345748251    1.18989983391545
H          -0.28982659422569    1.47115466545869   -0.27514365257674
N          -1.37847288781163   -1.13071439191129   -2.85496101997880
H          -1.59268300154665   -1.40563149644167   -3.80530725752035
H          -0.36806201669363   -1.03956188608419   -2.76050331562206
H          -1.77220065505923   -0.21211345132079   -2.69402898102107
