    23
        -45.36293462  Gyration_radius:  2.48400264693 Dipole_moment: 1.873
 S          -0.10752021766813    0.17281046984032    1.00199696337844
O          -0.80200550887107    0.81533141787690   -0.22101445002496
O           0.28456232232159    1.18507260635130    1.92723896193738
O          -0.97701178933964   -0.86140149860228    1.49255480108645
O           1.16264972017870   -0.46468875323545    0.39364564837291
O          -1.22116763202262   -2.81121613397142   -1.80022095887329
H          -1.70174601656536   -3.60514295857176   -2.03996208507959
O           1.21021596257244    1.88812945031997   -1.28977781268068
H           1.51326509485111    2.51724291474646   -0.56596544965197
H           1.80146777635174    1.13063581057918   -1.24738546146210
H          -0.06302917059177    1.32064866698720   -0.72775865102630
O          -2.81769556997778   -1.15331505862458   -0.45529886063954
H          -2.28989861969043   -1.09385951336697    0.36247588188827
H          -2.76478781147001   -0.27606993910736   -0.84388479781274
H          -1.87941772232650   -2.20037110918154   -1.39089198659133
O           0.42645963552046   -2.85866057460969    0.26993956724648
H          -0.08693211327995   -2.92275702823607   -0.57527419948558
H           0.98072386467859   -1.47633476353999    0.28854991800697
H          -0.22803712391713   -2.69385171774457    0.96190628330751
N           1.88075197335699    3.27462570307758    0.85048179542287
H           1.35511683203715    2.62366951766220    1.43642915457463
H           1.48835457703015    4.19761584151550    0.98637237439186
H           2.83568152684540    3.29188661985742    1.18584336372644
