    23
        -45.36514205  Gyration_radius:  2.28502047905 Dipole_moment: 7.085
 S          -0.97516793815693    1.23396397645806    1.15095439522720
O           0.49867795170179    1.24566221669049    1.39813344620957
O          -1.18855958999164    0.87306543263648   -0.25798394008706
O          -1.53174897077274    0.03824951388093    1.99859296701722
O          -1.61860444437020    2.43953372944201    1.54001232319732
O           0.41793478310777   -2.21686354562193   -0.87702258393314
H           0.51047745302497   -3.11278139889401   -1.20357725100258
O           0.65765379075587   -1.36941127841281    1.75192203173452
H           0.71240819348501   -1.73350890116234    0.85134181025883
H           0.96158779908059   -0.44693145487438    1.69738314704675
H          -0.79480910037873   -0.62146032689648    2.00965698022785
O          -2.08688045464300   -1.58407392334539   -0.37114184750984
H          -2.43699536551438   -1.76054467319812    0.50530185526909
H          -1.89562573842521   -0.61708671405941   -0.38078758548101
H          -0.55616066048335   -2.06842796282765   -0.74037058636189
O           0.51593807141177    0.20693613460145   -2.15450507349824
H           0.66965547925062   -0.70812443781963   -1.85539261200392
H          -0.29380513050501    0.47239421589128   -1.66606256095923
H           1.35471612300336    1.23019506651488   -1.40087463335167
N           1.72093887369260    1.96715745251765   -0.69332208447847
H           1.20874309401006    1.70264149643949    0.25812851628232
H           1.42022846414647    2.89488532859280   -0.97486610491595
H           2.72939730657128    1.93453007344570   -0.58552059888712
