    23
        -45.36293458  Gyration_radius:  2.48336718176 Dipole_moment: 1.870
 S          -0.38536551041767    0.57582579757053   -0.75268777854801
O           0.34161063525710    0.21766108455384   -1.93994163066731
O          -0.89922362783371   -0.73563402553287   -0.11491061772203
O           0.59566798532730    1.12500247938316    0.30847783481859
O          -1.46235832765621    1.49882591083263   -0.90408211116227
O           2.81609656572858   -2.15200369348459   -0.22003794315715
H           3.53204560866626   -2.69110032170282   -0.55967476737914
O           0.64861141847399   -2.45293274753304   -1.74191587199803
H           2.02079892892432   -2.37211215846324   -0.76141090961588
H          -0.10790135740726   -2.64954644483490   -1.18299344982164
H           0.53274759558352   -1.51840108293094   -1.99519998739390
O          -1.32319805958018    0.10891136961552    2.21939144010026
H          -2.01053472418867    0.82430637540457    2.05412757699809
H          -1.13928491051401   -0.49778247550927    0.85668706798936
H          -0.48773882201951    0.56820062580436    2.34672663183362
O           2.77636830873243    0.44494591362479   -0.72582978265171
H           2.90481340603229   -0.49647921409057   -0.44440059986009
H           2.35338436338500    0.40333840212715   -1.59400131917510
H           1.55289895886037    0.90114993288743   -0.01025792516447
N          -2.94507282317190    2.04332342886001    1.45782365562877
H          -2.84143784281935    2.98529046863325    1.81361149509452
H          -3.93517104546541    1.85323536414619    1.36901597334766
H          -2.53775674391906    2.01597501066240    0.52148298849298
