    23
        -45.36293458  Gyration_radius:  2.48330965736 Dipole_moment: 1.870
 S          -0.10616311857563    0.99857902682871   -0.19553631197903
O          -0.72498115612157    1.79768076782075   -1.20216615190423
O           0.68918572004340    1.68332715697026    0.78674672947600
O          -1.19439385776627    0.15996933679294    0.51341234400256
O           0.79527928252059   -0.07280072464395   -0.85153396451209
O           1.68046456648161   -1.43930585913903    2.77704984372841
H           2.23478544076851   -1.56060744448517    3.54951136732078
O          -0.34753497673750    0.25767374000241    2.87159467295534
H           0.32897761922840   -0.46442107502456    2.92540382340037
H           0.14496389649471    1.06285774191260    2.66302513515521
H          -0.95185553850677    0.12405173367698    1.51733604750035
O           2.89814282744370    0.15701395572613    1.02381502487017
H           2.21516048701441   -0.92117615827951    2.12917966869247
H           2.88812706384130   -0.25665341991683    0.15655095060645
H           2.21301485896035    0.84925228783457    0.97563408283212
O          -1.00037941524736   -1.55929811565137   -1.80439476938883
H          -1.47341107614297   -0.92975253668190   -2.43007231474752
H           0.15421343270579   -0.73346544329446   -1.31063456721122
H          -1.55289275807154   -1.61781923757322   -1.01925872472214
N          -2.15634428791943    0.36140423322756   -3.19255779247498
H          -1.73409920353783    1.05950838610990   -2.57792442952150
H          -3.15954821707937    0.49435523373392   -3.16961036477715
H          -1.84071160979239    0.54962639403960   -4.13557029929295
