    23
        -45.36293467  Gyration_radius:  2.48374101098 Dipole_moment: 1.868
 S          -0.15664897449606    0.43844304296022   -0.91056644527089
O          -0.13798361964921    0.02758154525524   -2.27636202474160
O          -0.32757587404062    1.84202414034031   -0.65152314853542
O          -1.24871572640543   -0.36194411653609   -0.16452213778305
O           1.14823586336745   -0.00296404520314   -0.20820251270644
O          -0.22182369780073    1.58546519582919    3.17230899138255
H          -0.27839738501302    2.25099683117765    3.85981570875719
O          -2.13535040628209    1.42723621502308    1.35211250897649
H          -1.80049512952733    2.10540798510511    0.75022610924038
H          -1.69805942531702    0.28119377295556    0.50805304886736
H          -1.51888412166045    1.42894741068753    2.12820267505734
O           1.47646690550750    2.37978032868444    1.27774883342843
H           0.85644612600679    2.35839906290574    0.52537150275518
H           0.48358505581374    1.88656319129308    2.55114071782175
H           2.10396898255824    1.67499653506271    1.09647765577400
O           0.71866928937451   -2.48274212393479   -0.11499515459899
H          -0.18000272080427   -2.44809822055496    0.22612473332199
H           0.63589807497481   -2.71115430818993   -1.09089832083237
H           1.09695832526589   -1.02828322314674   -0.14315533939804
N           0.34854477579611   -2.73758490668949   -2.71333643118073
H          -0.44082688596880   -3.25238501242364   -3.08280057279517
H           1.14442874630699   -2.92021893085887   -3.31129533740308
H           0.13156181191500   -1.74166037968417   -2.77992504014620
