    23
        -45.36293469  Gyration_radius:  2.48370064932 Dipole_moment: 1.873
 S          -0.22799912844752   -0.40439906570721   -0.91181769999165
O           0.49533606536387   -0.91554693490312   -2.02989489038578
O           0.31082663548461    0.99314811858937   -0.52810005255581
O          -1.65394170047458   -0.28897571642974   -1.05197489615567
O           0.10182652182054   -1.26425373280718    0.32995378196333
O          -2.31625192154212    1.10418214654412    2.45855669663919
H          -3.12392420467946    1.37787181804785    2.89620922136603
O          -2.22497556205231    2.12677170258575   -0.00123722032356
H          -2.16126055702033    1.28694344271487   -0.49275462592089
H          -2.29144925293229    1.58274504696523    1.59574715397227
H          -1.37501088468565    2.55382948805656   -0.13735806364251
O           2.53218030339866    0.30198506542345    0.43595273893774
H           2.21546852453055   -0.40927374533707    1.00072780036967
H           2.96596250270635   -0.14409984733138   -0.35425085174499
H           1.25131846733876    0.83368813892657   -0.14275592070692
O          -2.15373547306149   -1.32563566331286    1.42395134193131
H          -2.57246957528394   -1.13456366496328    0.57396055018769
H          -0.76888882747813   -1.36340427159904    0.87734562948406
H          -2.20558700073658   -0.48361413188014    1.94408043093767
N           3.32007125692235   -0.97795489369587   -1.73041080707888
H           2.34763641924413   -1.07198869267886   -2.02861758693143
H           3.71876611145568   -1.90673147873052   -1.67508812371696
H           3.81610129009247   -0.47072310850952   -2.45222462664605
