    23
        -45.36293460  Gyration_radius:  2.4831697254 Dipole_moment: 1.873
 S          -0.28868114257748    0.80103273167916   -0.56791812721900
O           1.16888645038558    0.58419570876755   -0.10033586267872
O          -0.95199955532915    1.70662967267282    0.32998842354492
O          -0.28059698545733    1.14770405032401   -1.95157380359655
O          -0.93313151791526   -0.59133586078677   -0.37590848007402
O          -0.25194048549654   -0.28373676711732    3.53051483164414
H          -0.49249769717767   -0.13347779535383    4.44607191095999
O          -2.37128374028252    0.09467292102350    1.95876157874546
H          -2.47146461481435   -0.66005840919097    1.37248905568061
H          -1.08767880835792   -0.22148147643350    3.00923399869507
H          -1.99604297625061    0.79711943227192    1.39604740892019
O           1.04268043278618    1.59529725167782    2.19090556886485
H           0.27475044415693    2.11616313132872    1.92009370591543
H           0.68651279974868    0.87113109061815    2.76598367076719
H           1.24709726933113    0.96752294918164    0.85608112558062
O           0.90378303622125   -2.00761930885916   -1.35623236074007
H          -0.26790456043769   -1.26464416352264   -0.77909311746292
H           0.94439898727306   -1.66089637833740   -2.29955331764911
H           1.64343903416544   -1.60335431741922   -0.89297248811817
N           0.91645959674373   -0.76278254960409   -3.68031689729822
H           0.48049272819937    0.05253463334011   -3.24599504430692
H           0.30243211127490   -1.08446195114993   -4.41775362182443
H           1.78228917395135   -0.46015459512123   -4.10851816834922
