    23
        -45.36293456  Gyration_radius:  2.48390663191 Dipole_moment: 1.870
 S          -0.26354660937654    0.80945810760316   -0.56564017082463
O           0.97256557772113   -0.06615832738162   -0.87460295933844
O          -1.10012594187272   -0.08083916109910    0.38203624492531
O           0.14242214399658    1.96750475228122    0.18292275749119
O          -0.97930600388956    1.03782068131630   -1.77812491868620
O           1.87399586072052    0.05486893896253    3.01831656966685
H           2.31815766185449    0.35183630341926    3.81414253137593
O          -0.44484394096776    1.33894822797864    2.73757657594018
H          -1.14455211186796    0.70014846019076    2.57727013720913
H           0.98845137854314    0.49063544084889    3.01464892318102
H          -0.27077843990238    1.73899944817253    1.86545496299471
O           2.64572197124386    0.98978488106775    0.66633686905937
H           2.48417550791876    0.56214502113966    1.54556396803854
H           1.74910871851511    0.27690791407844   -0.28555720783858
H           2.12751028724715    1.80565976054823    0.67292076363961
O          -0.91631984023453   -2.25864051235274   -0.86938931627625
H          -1.33577118067875   -2.02270122212570   -1.75250280487382
H           0.03423852823658   -2.24644102580060   -1.01584976204594
H          -1.12162288385750   -1.01115570091998   -0.05620698411574
N          -1.86860342079696   -1.29642117859438   -3.13222924360703
H          -1.62118660060729   -0.35132365203830   -2.83409561218521
H          -2.86650546032765   -1.31574515114351   -3.29983614222546
H          -1.40318521158097   -1.47529201618642   -4.01315519149682
