    23
        -45.36401749  Gyration_radius:  2.40248830914 Dipole_moment: 1.947
 S           0.42109200916759   -0.17986826179531   -1.29184534823039
O          -0.53920106688034    0.46603855587729   -2.13658129262054
O           0.93100629347496    0.87586560044723   -0.27360878587949
O          -0.29984709355048   -1.21538119564880   -0.39846516025770
O           1.53199835844057   -0.82770325076128   -1.90579198456180
O          -1.10151879472233    2.22512271674488    1.11716075621205
H          -0.23973528996181    1.98946613693609    0.74813476098309
O          -2.29172760332491   -0.08108977907455    0.63707632575269
H          -1.88336431173069    0.70948526984096    1.07303131087676
H          -2.80784973144473    0.30283349875402   -0.08574310386063
H          -1.14815081582525   -0.79293373771580    0.02536602150778
O           3.00340999742450   -0.38037700362446    0.30844972232018
H           3.00410947297018   -0.73082531029120   -0.59478933804158
H           1.82925944310352    0.47727602523405    0.06526824230201
H           2.63994360159415   -1.11492389671208    0.87666823671861
O          -2.54717171994341    1.95314022704769   -1.26979029747899
H          -2.97329937221862    2.40248695861298   -2.00082206669192
H          -1.62579961764592    2.55693566975865    0.37337183191600
H          -1.80036688351233    1.44967770623456   -1.65878902199682
N           1.66802457200360   -2.34182225641077    1.53488217265732
H           1.34326176258411   -2.20368765531346    2.48349037857276
H           2.01744432825833   -3.28870940456456    1.45926724124924
H           0.86848246172005   -2.25100659355966    0.91405935853292
