    23
        -45.36293461  Gyration_radius:  2.48375527043 Dipole_moment: 1.874
 S          -0.19311491009237    0.82730365532670   -0.56874833472876
O           1.13297836156160    0.10009669941454   -0.24720910540473
O          -1.26753934875750   -0.23723228136356   -0.24859445080732
O          -0.31339432915812    1.92420747166686    0.35240729447472
O          -0.25400688761960    1.13739883511232   -1.95965692819708
O          -0.01600205413940   -0.17147526744539    3.54902944724250
H          -0.01839786084414    0.07031131019303    4.47655418810446
O          -2.02534491747077    0.57756153589892    1.99870822291040
H          -1.66385687343308   -0.00742941451715    0.67747378045620
H          -1.36986016686008    0.20025508549534    2.63907233138838
H          -1.70370907306574    1.46409908160495    1.78671342647471
O           1.60181324353430    1.45380200222163    2.19008437753675
H           2.19999796045163    0.92875501887149    1.65170827863439
H           0.94324335358687    1.80169811760235    1.56066990452963
H           0.66359518089637    0.39749913898434    3.11491141223223
O           0.64271715545985   -2.10755216146809   -1.35514062066299
H           1.05764788775676   -0.82575336235534   -0.68934980439304
H          -0.23715922826705   -2.24480235673178   -0.99157764217735
H           0.50684192406298   -1.82843640763495   -2.31188867167933
N           0.14151137810030   -1.05672809540612   -3.72072212949847
H           0.90281717026424   -0.92150187884845   -4.37376515345582
H          -0.05333344014928   -0.15644845313516   -3.27924626203935
H          -0.67744451586191   -1.32562826346147   -4.25143355093657
