    23
        -45.36140462  Gyration_radius:  2.48229252488 Dipole_moment: 3.038
 S           0.30129495268091    1.34281867537182    0.33013256451008
O           0.28183763015981    1.61449641069288    1.73333122777448
O          -0.99661628007194    1.20165071321483   -0.28033829647905
O           1.13822891583302    2.40389316806297   -0.37596404520235
O           1.10002778458877    0.03578194402267    0.04981185574274
O          -1.11797847567485   -2.34496950976747    2.28455598205721
H          -0.58648585992261   -3.10816328152169    2.51717878679738
O          -0.01846611470133   -0.28429828630935    3.57436810109160
H          -0.52278345221235    0.14669425505805    4.26713979859708
H          -0.74513897791027   -1.58943157021940    2.79538133878679
H           0.17533249251096    0.41443111128877    2.91695903325591
O          -0.87547898122427   -1.51116061196676   -0.20641517593231
H          -1.02678932118418   -1.91072819727764    0.68830072545595
H          -1.43537524355802   -0.72251854310829   -0.24241687663438
H           0.40397437429383   -0.70326916651922   -0.07548980019140
O           1.92578764702342    1.19415513265664   -2.45059897080249
H           1.05048027286882    0.80924043444527   -2.76304559526584
H           1.48352149954178    2.01027321838744   -1.26121770700366
H           2.40650724380565    0.46910185830049   -2.04207295043910
N          -0.47390563175085    0.20510026341354   -2.90206111782697
H          -0.56372015445808   -0.79372172063398   -2.75845448856822
H          -1.02497410268064    0.45662179708208   -3.71254475646305
H          -0.87928022796833    0.66400190531887   -2.08653962326965
