    23
        -45.36293467  Gyration_radius:  2.48386869212 Dipole_moment: 1.873
 S          -0.37943063167281   -0.92267493311604    0.22540603868395
O          -0.70623039356276   -0.17898297989371   -1.08992021630964
O          -0.06011399850950   -2.27875721281525   -0.08058991980129
O           0.87811084375679   -0.18801071165210    0.74458969969213
O          -1.43071069228418   -0.69710153763794    1.17951145640349
O          -1.28997897732839    3.13325755459464    1.07520624120662
H          -1.78661630977168    3.80375923750848    1.54701770318074
O           2.16606971082371   -0.04818319988949   -1.41487943240897
H           1.45348483369064    0.27647803074510   -1.97340830609388
H           1.50549380620195   -0.10135731652471   -0.06613727761800
H           2.27873761395646   -1.02037627636849   -1.64675255009162
O          -0.46586591065117    1.25111395952843    2.77323952384871
H          -0.93352397695441    2.51791491894857    1.75962104544356
H          -0.90153786479145    0.48871715738733    2.34913991835390
H           0.47394622739040    1.09652584011340    2.64594429349062
O          -2.58538909093546    1.28312647909737   -0.30319819967014
H          -1.48401626013831    0.47185685504657   -0.89186489354017
H          -2.75654068871064    0.67224682819693    0.42610236613703
H          -2.14108701539727    2.06977024638568    0.10424004890648
N           2.12268606618308   -2.64635219301360   -1.86180498695156
H           1.31094986140770   -2.73838200614591   -1.24858666428818
H           2.86145999598327   -3.22602443764357   -1.48424506876642
H           1.87010286133290   -3.01856429272842   -2.76863083987304
