    23
        -45.36293439  Gyration_radius:  2.48511089973 Dipole_moment: 1.867
 S          -0.51662675798380   -0.11056014839018   -0.87205366346460
O          -0.10671849904025    1.15601868302730   -0.08568978340201
O          -1.86710268194880   -0.42896879964948   -0.49633613966908
O          -0.25530407491066    0.07323214912169   -2.26218472947577
O           0.44176275407913   -1.19291601521804   -0.32405705410491
O          -1.22204569221500   -0.66910994148032    3.27659448244376
H          -1.80755492547325   -0.85057749462786    4.01349917642888
O          -2.33545205673964    1.12832316062015    1.65353197620103
H          -1.63896422570028    0.06407013357438    2.76410448514976
H          -1.70296858629626    1.82841137345239    1.47131397240076
H          -2.34612258215161    0.58741652708298    0.84222341301429
O           2.39419973041064    0.94158128472530   -0.28681673470852
H           2.52137549644789    0.97875718574433   -1.28381348666957
H           0.92057314652908    1.19005502686530   -0.12878321718239
H           2.46605380111381    0.01345680064689   -0.04477077846057
O          -1.10288878173883   -2.37605152084902    1.25784267096832
H          -0.08941630977932   -1.75993032998252    0.35729838511639
H          -1.07212108650627   -1.84032221064252    2.09091745368292
H          -1.86460523595707   -2.04632481507366    0.76248517558882
N           2.39388379246850    0.86128230983885   -2.92243931933491
H           2.92913441797380    0.16598357131459   -3.42709483826444
H           2.44251102213943    1.72751464146753   -3.44357348630685
H           1.41839734524238    0.55865843842061   -2.91219794991674
