    23
        -45.36293438  Gyration_radius:  2.48519240335 Dipole_moment: 1.867
 S          -0.97167330798380    0.30652028299818   -0.03196805555304
O           0.02083507136123    0.78164789323176    1.05407754060788
O          -0.27963948531239   -0.94442548244275   -0.62088990279388
O          -2.19705067940118   -0.06508227719671    0.59643856341207
O          -1.04460958943143    1.28811675499499   -1.07957897489232
O           2.71252668166753    1.38741465871508   -1.84299511108617
H           3.21936075457041    1.88383136073198   -2.48754802814778
O           0.42745570653112   -2.04254579589754    1.53205682097741
H          -0.45886513495242   -2.19713586682331    1.98159573289408
H           0.03018412901352   -1.49816661587889    0.18887252199507
H           0.80800731157239   -1.26737851306663    1.95568781637040
O           1.12155862322647    2.67578149668900   -0.16606327154411
H           0.54935791157767    1.57869876623330    0.66258254730707
H           1.82951886060734    2.24848998390879   -0.71211873729031
H           0.35233358169080    2.75045366604025   -0.74660106449745
O           0.56853745480809    0.31327886332087   -3.00667545265548
H           1.98964686969957    0.93887348952359   -2.34325153704380
H           0.51908351696580   -0.62031069420761   -2.78457015425314
H          -0.11156200305933    0.73616276321987   -2.45029797512943
N          -2.00655223319030   -2.12682221946342    2.54279739548867
H          -2.29111209290900   -1.37048722996429    1.91810956313138
H          -2.19161292147146   -1.83071205761666    3.49289309700005
H          -2.59572902563503   -2.92620321715027    2.34744666568259
