    23
        -45.36140466  Gyration_radius:  2.48279448723 Dipole_moment: 3.038
 S           0.94440769275291   -1.05041303543569    0.07463532493895
O           1.35873110790598   -1.97227957464669    1.21620973051730
O           2.03190138663641   -0.91912016190005   -0.84367354160649
O          -0.30267472997161   -1.46775779637787   -0.51512516838387
O           0.69311994945985    0.30295498018911    0.80287791500120
O           0.02443007559290    2.44803400267696   -2.44568405698625
H           0.19646404797609    3.36670845327864   -2.23242601182949
O          -1.25968107894421    1.07343493346467   -0.59566911461877
H          -0.87585543166576    1.64022028176084   -1.31281700285667
H          -1.29896477428927    0.17732063893840   -0.95923670261089
H          -0.09650298402929    0.74278779892272    0.32436532737458
O          -0.12687448301749   -1.20603239665115    3.11165383984057
H           0.77894224520096   -1.75470888752754    2.03751134924075
H           0.15416508219837   -0.28925402523678    3.17701658353386
H          -1.01330610283090   -1.19406101884375    2.63609851803706
O           2.39919870191180    1.23453739636487   -2.36437655990159
H           2.32722932720707    0.47215313017575   -1.75483801828543
H           2.76116239431551    0.87964953090538   -3.17873905669583
H           0.90416990254389    2.00488337780530   -2.46316072072247
N          -2.24436524622094   -1.12243742606038    1.54669567504014
H          -1.72320282012818   -1.43653691568389    0.72832864036999
H          -2.59316053340685   -0.19386754826568    1.34058264095366
H          -3.03933373919864   -1.73621574785089    1.66977040964178
