    23
        -45.36140454  Gyration_radius:  2.48239803757 Dipole_moment: 3.036
 S           0.81346392040847   -0.85613596005903   -0.77909158739635
O           0.83182049262296   -1.19824888543681    0.62085759701594
O          -0.40793969500441    0.07896698893326   -1.02103374112601
O           2.00780772061324   -0.23940686650380   -1.26518259535542
O           0.48450448512023   -2.06675767607633   -1.64562160309038
O           0.95789711306552    3.15934012461078    1.03447728345068
H           0.51178918242449    3.94438576379347    0.71238074928642
O          -0.56753660109318    1.02513557304344    1.31132956960095
H          -0.04418921807182    1.86723944076070    1.30042097888029
H          -0.59065905230810    0.54664147325498   -0.12968044661766
H           0.04965867548730    0.33339435871492    1.58948127462780
O          -2.01858900327320   -2.27979446069406   -1.36783350878507
H          -2.29159545311575   -1.42243594405915   -1.70558440546061
H          -0.52386549240371   -2.25531508563045   -1.57253424386505
H          -2.08227911962102   -2.21955422389577   -0.36571992566762
O           2.52686722100224    2.35415985915359   -0.96765990610881
H           1.57449885520624    2.88464910150733    0.31676195098331
H           3.47798608245159    2.38397181023890   -0.84687668366548
H           2.31574694237805    1.41778853743883   -1.15889929862462
N          -1.85682838504449   -1.92605744548881    1.23776400000610
H          -2.22965451578456   -1.04793275168430    1.57869923477464
H          -0.84126170678489   -1.83506804804495    1.22003056594926
H          -2.09764245827420   -2.64896568388340    1.90351471118625
