    23
        -45.36293460  Gyration_radius:  2.48402618085 Dipole_moment: 1.868
 S          -0.85440900933325   -0.07267781956109   -0.55626545711853
O           0.09539547551579    1.14459803694294   -0.63332474645229
O          -1.93855331582917    0.21923510157937    0.34133843135318
O          -1.19815006016807   -0.47196700234979   -1.88170349192223
O           0.01693105605605   -1.16020591365980    0.11385898729607
O           0.23915483072134    1.12311871878197    3.36457280395114
H           0.01363015138583    1.38865320275141    4.25760632565741
O          -0.75005196692217    2.47526733587297    1.31654854073567
H          -0.29223282733582    2.08804053485184    2.10565493015449
H          -0.15663245212497    1.78271089567099    0.13946287236090
H          -1.60121703552003    2.02085230022793    1.25867397890404
O           2.13642097247394   -0.82484562743813   -1.20456974605845
H           2.18667438399733    0.13293657292577   -1.13156000585087
H           0.91996197382140   -1.13626718291829   -0.37802145442308
H           1.82501376809774   -1.01512591343870   -2.14170247003526
O          -1.22745568897119   -0.98378395383898    2.64641885290184
H          -1.65685915609403   -0.58736637862271    1.86579251754429
H          -0.65223115807348   -1.66520496834052    2.28848935254745
H          -0.26092247141640    0.29095735350809    3.18708466121001
N           0.98998463509392   -1.17218848333946   -3.55377957451585
H           1.15840221174478   -0.53153515151891   -4.31921612126928
H           0.08311113318278   -0.93989678083444   -3.14515466206905
H           0.92403452969497   -2.10530485724030   -3.94020450489849
