    23
        -45.36514201  Gyration_radius:  2.28512234906 Dipole_moment: 7.089
 S          -1.68754814892194   -0.74951426429178   -0.62370155458409
O          -0.59794044785450   -0.83525497974413   -1.64289623009851
O          -2.98959069241345   -0.76367232277343   -1.19228801735294
O          -1.49762763949887   -2.00341906954644    0.29795060954239
O          -1.41884446156258    0.42439515979254    0.21935580080592
O           1.82983487924806    0.10573725932106    1.58122772773472
H           2.50684108615767    0.11340369373562    2.25909799258790
O          -0.56451652405833   -0.39296330736555    2.55581336148449
H          -1.01749453715555   -0.03621832610632    1.75629181534022
H          -0.85345780677999   -1.30637401643652    2.61974598299378
H           0.96844487951605   -0.06485156270009    2.04840462372881
O           0.58543710825754    2.13510954981684    0.22013004683974
H           0.48349546992585    1.85936544031576   -1.27376865143622
H          -0.27414723977475    1.69017614647937    0.38755940369160
H           1.22913858733756    1.55937547131386    0.67231697429208
O           1.09806954443802   -2.04154517706834   -0.01260183758568
H           1.49954406653657   -1.31781627345428    0.49893595456670
H          -0.52215066807227   -2.16733238280107    0.29454407721618
H           0.76653574387046   -1.64736358664997   -0.83784892559486
N           0.20296748079622    1.48331355139520   -2.25252349059627
H          -0.16740181132982    0.45443244342333   -2.04782666931558
H           0.98353126931215    1.46724807667602   -2.90068232116508
H          -0.56312014797282    2.03376847666651   -2.62723666309504
