    23
        -45.36140456  Gyration_radius:  2.48271627319 Dipole_moment: 3.034
 S          -1.10001934699341   -0.88549719020271    0.08327253868453
O           0.44427827559837   -1.00790948245948   -0.07518004734804
O          -1.61955561800090   -1.96022381830488   -0.86521313151469
O          -1.48370360301483   -1.21218262036269    1.42092038643825
O          -1.48126526536213    0.43388879406735   -0.35397179907724
O           1.39989168718826    1.60003131368337    2.72934464465737
H           2.29241154308303    1.40284341914724    3.01850278981336
O           0.99302571979122    1.44561663235639    0.12744996430437
H           1.20073865976855    1.60020507969260    1.08455841556666
H           0.81445439094935   -0.05677175183007   -0.00817452951081
H           0.04649719027921    1.62259004333754    0.02996248788742
O          -0.00191120319538   -1.81413505787106   -2.80154728573130
H          -1.03522570884536   -1.95715748950387   -1.71163092857174
H          -0.00974368893993   -0.81974264764548   -2.95381811844595
H           0.81900159334014   -2.00812889838246   -2.34091383421882
O          -0.09157649669616   -0.45111960076967    3.55827322019887
H           0.83606467206825    0.86915686880376    3.07386006445540
H          -0.76334036375068   -0.29328633089898    4.22454580995931
H          -0.56961254726837   -0.80875056743539    2.78269325295546
N          -0.11980700379353    0.81743920689805   -2.83187659863349
H          -0.78183129052067    0.85342898136246   -2.05700667940213
H          -0.51107588745130    1.33816794566303   -3.60620595197416
H           0.72230429179432    1.29153717065144   -2.52784468049788
