    23
        -45.35981436  Gyration_radius:  2.32612497223 Dipole_moment: 5.669
 S           0.04984382368468    1.97227782866395   -0.84715297803730
O          -0.31955785454397    2.41396097907350    0.59855740447015
O           1.28706555269025    1.23006862209887   -0.77304280025456
O          -1.09665200161972    0.97387575640538   -1.18420615314229
O          -0.00184110437439    3.05282017924399   -1.75624648063687
O           0.46561164335714   -1.16327954371775    1.87926262873737
H           0.58650658265583   -1.96388151498067    2.39082813120480
O          -1.79461830977413    0.01708111582196    1.09401339552477
H          -1.02583643668510   -0.48499667508449    1.44812109667361
H          -1.85926747321641    0.82473269025718    1.61127357842629
H          -1.40972232374640    0.54735429341749   -0.32530348362576
O           1.57385402539220    1.31409408164802    1.89353248997243
H           2.06401488755589    1.23628209302410    1.06240374942063
H           0.41218886659460    2.06666883573560    1.21078284877543
H           1.24186559356643    0.41424723155932    2.08461212501973
O           1.31440061018328   -1.46103766054103   -0.51784832532701
H           0.82874630998325   -1.35610327545345    0.95154353605675
H           0.56919865078566   -1.74609952652815   -1.09774766530346
H           1.46056267857742   -0.52428825381952   -0.74135707171809
N          -0.86398450137070   -1.87945945697051   -2.09252672839393
H          -1.10402592275860   -0.89472480975634   -2.15248787681331
H          -1.66214965462551   -2.36610602183839   -1.70414677163330
H          -0.71620366231058   -2.22348696825710   -3.03286463939851
