    23
        -45.36514204  Gyration_radius:  2.28504767924 Dipole_moment: 7.086
 S          -0.53654553588471    1.48152307816805    1.14668445886282
O          -1.42967762517811    0.29020613848252    1.27518673924991
O           0.01421869194810    1.48141532866046   -0.21629938657595
O          -1.17034443668937    2.69985557975986    1.51105620229911
O           0.67090746565744    1.20425001383654    2.10739150667666
O           1.62888626678684   -1.61658623511057   -0.77020588660073
H           2.32898663926972   -2.20917948748606   -1.04711599563733
O           0.55288392680361   -1.38609544720220    1.77434653863165
H          -0.36315976720188   -1.08777348462229    1.63947868913359
H           0.90120281206745   -1.61890286190202    0.89622575434869
H           0.77237855046341    0.22029888713926    2.10044937019613
O           2.53087721839988    0.76620364281391   -0.10715844180467
H           2.79327701406373    0.92105211779241    0.80337395968563
H           2.06412579091037   -0.74572947927169   -0.56623665022948
H           1.64028070299972    1.18029275447999   -0.19115638660131
O          -0.26167088576841   -0.23523262253269   -2.19674669659646
H          -0.05007517517301    0.56166830762658   -1.66301728948171
H           0.35804990803640   -0.90607335113123   -1.85565463941591
H          -1.64870712852681   -0.33262007095362   -1.57598432646151
N          -2.52472020916678   -0.21493498371923   -0.94613286873346
H          -3.07035392697308    0.58158622650040   -1.25933716331941
H          -2.10363174382476    0.01696544861496    0.05725001602084
H          -3.09718853301914   -1.05218950994127   -0.91639750364594
