    23
        -45.36293462  Gyration_radius:  2.48389554297 Dipole_moment: 1.870
 S          -0.72250712205789    0.35569106272569   -0.63006980117354
O          -0.32206594079869   -0.03545143817349   -1.95407496316504
O          -0.68245370436234   -0.91137158778150    0.25533417502886
O           0.36614381615433    1.25858443416495   -0.00593487090100
O          -1.98692902125381    1.00242550345223   -0.49814888593980
O           3.05499579298747   -1.54769802915978   -0.95190074358309
H           3.74188298800747   -1.97531045502717   -1.46587560481060
O           0.66956365197176   -2.52151873419077   -1.63495935904632
H           2.21154614794979   -2.00830600402637   -1.17676347916379
H           0.18973286975259   -2.77316100857797   -0.84135344006009
H           0.25911911546700   -1.68305635253961   -1.91681770774496
O           2.23265991973233    0.87258701328547   -1.63524253937680
H           1.20833635659781    1.18289562541557   -0.60005204794804
H           2.66494878965806    0.03396012290390   -1.33175504430163
H           1.59145754224652    0.60761767824450   -2.30831613476867
O          -0.57899939909730    0.19694940155321    2.51447709449424
H          -0.67035325959387   -0.57277087780391    1.22658611663160
H           0.11835950788315    0.82999245051992    2.31924004606646
H          -1.43613294269340    0.72291954386398    2.52217758191944
N          -2.77259702531185    1.61739692306760    2.16217741773792
H          -2.67322802332739    1.51935311124047    1.15033061009082
H          -2.79673735519845    2.60629009642122    2.37704581352448
H          -3.66674271468082    1.22198152044161    2.42389576647113
