    23
        -45.36140463  Gyration_radius:  2.48252688531 Dipole_moment: 3.041
 S           0.60441725889669   -0.21708603914805    1.26076242843673
O          -0.14554997044703    0.30145131732376    2.36161229288740
O          -0.33281172167958   -1.00690053273055    0.30009858887512
O           1.29912719907129    0.77338156134278    0.47746219708742
O           1.55450160919587   -1.29789879554428    1.76458134447685
O          -2.80097821022546    1.97279524954775   -0.48375569804651
H          -3.63338891694262    1.59585739379280   -0.77369625004736
O          -2.58431477837848    1.33512699086830    2.09799296046910
H          -2.60430908761753    2.04066157362096    2.74759264503019
H          -2.73819212436639    1.78071358661549    0.48051876818416
H          -1.72522433598924    0.88408483093229    2.22655195367171
O          -0.63442502444557    0.80275132213527   -1.43072463206919
H          -1.46198692083609    1.28675004779045   -1.17788570460240
H           0.09150246492718    1.27718503768917   -1.00101927787599
H          -0.54766319580947   -0.37402019689368   -0.47427285865873
O           1.89165794620304   -2.73608510419672   -0.28603349165069
H           1.77923662434569   -1.92518881108699    0.98102873046609
H           0.98273800033136   -3.00414686058352   -0.44643545782338
H           2.09586668154162   -2.01973391745051   -0.96215055679234
N           2.22469869682895   -0.62724077847368   -1.82925641808899
H           2.10866186021434    0.02798180320809   -1.05644011709270
H           1.47474580913163   -0.44978685073467   -2.48684004821811
H           3.10169015603600   -0.42065284802213   -2.28969141861559
