    23
        -45.36293441  Gyration_radius:  2.48322718012 Dipole_moment: 1.877
 S           0.93966475706844   -0.31720294409248   -0.25013241662196
O           1.52935093011692    0.74821562798538   -1.01399147104553
O           0.58340258342444    0.19576835008486    1.16416451505403
O          -0.44152851975965   -0.62116931720205   -0.87507847141310
O           1.69376755675969   -1.52144151090248   -0.12528035982020
O          -1.35692777018272    3.23086716587399   -0.57476302419107
H          -1.49117618607157    4.12143201809547   -0.90292255866681
O          -1.49694541344990   -1.81325269034960    1.07578179150684
H          -0.87821458154667   -2.59781591124365    1.19142816081640
H          -1.25683082569135   -1.18288747620696    1.76144985286779
H          -0.96170668934027   -1.14735426557602   -0.16014463368975
O          -0.49391088293528    1.65762451263716   -2.54583972534405
H           0.34462888087618    1.37729955919130   -2.13454289140729
H          -1.03065536367063    0.86100200812367   -2.57243518450963
H          -1.12960763020087    2.67675460634323   -1.35925564611055
O           0.83141135948705    2.66462843182988    0.80085325225692
H           0.64875662345906    1.22676926703650    1.14378895410345
H           1.41733763553811    2.49626827882323    0.05071441808139
H          -0.03202434159162    2.95088812248924    0.40766291002504
N           0.39966821392116   -3.63486403547343    1.26408237019353
H           0.81482272219824   -3.86978812098448    2.15686721510976
H           1.04478354973440   -3.01388014757288    0.77264682660950
H           0.32193338182914   -4.48786152896140    0.72494611624785
