    23
        -45.36293444  Gyration_radius:  2.48313697378 Dipole_moment: 1.876
 S          -0.29406303592287   -0.37627016384016    0.90474867140339
O          -0.42806610654020   -0.94067632152098   -0.52848188291735
O           0.82748474968103    0.67884856590530    0.76649406868607
O          -1.53350348041014    0.27805538784494    1.22412062050984
O           0.14688573060160   -1.40146852540366    1.79302115607793
O          -1.53872165416717    2.66114691677392   -1.77722345060454
H          -2.16482977891683    3.32764432739279   -2.06460023051472
O           2.01609725554910   -1.21700793499751   -1.06755132466094
H           0.53273888839330   -1.12536028842712   -0.84676655355566
H           2.31515072617752   -0.35177387668251   -0.77242818313535
H           2.30679473251483   -1.86779953149641   -0.35786162733452
O          -2.82995782867086    0.41943895679353   -1.13519942118722
H          -2.41310089235368   -0.32379257474668   -1.57931198183925
H          -2.53043960626948    0.35407223493044   -0.20950153872279
H          -2.05716334582932    1.83210760453521   -1.64283878174286
O          -0.55660304207294    2.76805823873168    0.67745764484134
H          -1.27905686693022    2.30966337959608    1.12723179294627
H           0.37416541424444    1.60606756724671    0.71658136462557
H          -0.83711127236188    2.84594580781293   -0.26982284835494
N           2.52130563272724   -2.75340985550847    1.01456629439028
H           3.32017170364545   -2.58149035805748    1.61194763614580
H           2.40880232721790   -3.75557490888577    0.92906469502422
H           1.69301976970355   -2.38642465801069    1.48635386990935
