    23
        -45.36514199  Gyration_radius:  2.28511378583 Dipole_moment: 7.090
 S           0.34123805684061    1.86070215271134   -0.46956296219820
O           0.22575246722444    3.07530077061315   -1.19772187956878
O           0.84205471158848    2.16019789020322    0.98553349884239
O          -0.92627463390019    1.13016733291661   -0.32547612058601
O           1.34486033195555    0.91801790840025   -1.05042016239249
O          -0.33860252195941   -1.75972065231574    1.62711925357602
H          -0.49193170365474   -2.40061607389066    2.32252591243644
O          -1.31829393681969    0.61310016421605    2.21137337525831
H          -0.76259895038599   -0.91228168323783    1.92955871019530
H          -0.76043338912960    1.23784688350646    2.68086226470340
H          -1.29699729540648    0.90706454873477    1.27075332403424
O           1.92695724986732   -0.20122089929171    1.27291010263337
H           1.29988527816257    1.32924184198073    1.26533677742398
H           1.23041420541363   -0.86806737469049    1.40240121129314
H           1.97552818005311   -0.03296202706167    0.31599402341918
O          -1.54125673724580   -1.38622731681582   -0.80864223869113
H          -0.53442094763845   -1.14843001511277   -1.92549765064480
H          -1.13802947452515   -1.76057997698216   -0.00393155888797
H          -1.58996081220195   -0.42501038089282   -0.61228279771469
N           0.20062139409821   -0.71943129489103   -2.59915813161668
H           0.83945276092502   -1.41485268992804   -2.97060136712291
H           0.73994114927461    0.02238799992249   -1.96958822672702
H          -0.26790539253674   -0.22462709809376   -3.35148535766558
