    23
        -45.36293464  Gyration_radius:  2.48385104037 Dipole_moment: 1.871
 S          -0.94897646360191    0.07429596494751    0.37208855973621
O          -0.80790000314973    0.22484282829066    1.79464938826050
O          -0.32488721038724   -1.26923189911583   -0.07021378075995
O          -2.26785820982896    0.16654149148056   -0.16334318216296
O          -0.03335523142262    1.12681014747880   -0.29483382402453
O           2.99774075424394   -0.22941206081217    1.89495444077285
H           3.62704877713261   -0.20640565902850    2.61756564055537
O           1.33009584586638    1.84203491130166    2.07609765987372
H           0.49680402834947    1.33826291813266    2.12864259727068
H           2.47033940672396    0.60234578367577    1.95874697302536
H           1.28954907873404    2.29261937785328    1.22832061847037
O           0.92677067800168   -1.87183192721180    2.01743980982625
H           1.78419890537043   -1.37972047626853    1.94899665113611
H           0.33974375593671   -1.30426739251379    2.53471197214846
H           0.23132551540927   -1.62784934698751    0.72330946522636
O           0.14957305651117    0.08708327888699   -2.58098701416615
H          -0.81143884428953    0.07943254709692   -2.87784356248092
H           0.08752638215932    0.81464025379680   -1.26763616281666
H           0.34766929053938   -0.81161871731291   -2.30118507942655
N          -2.45332540051000    0.01099878170184   -2.99420839912922
H          -2.90500995330877   -0.82516482815668   -3.34272773541037
H          -2.91146276572311    0.80884618244214   -3.41601786895121
H          -2.61417139287948    0.05674784025951   -1.98652716693124
