    23
        -45.36293463  Gyration_radius:  2.48388228864 Dipole_moment: 1.872
 S           0.85264487556426   -0.49840237154935    0.26263423361647
O           0.64173344150159   -0.96786780052025    1.60478279737866
O           0.75889864551544    1.04450310135088    0.23367402157898
O           2.06039598234411   -0.89743479961138   -0.38294129020510
O          -0.36707090329186   -0.94324468319653   -0.57720430442370
O          -2.75040916158032    0.74162396471299    2.12508279944853
H          -3.35892917382772    0.74585305202352    2.86562699074252
O          -0.23128809116691    1.45935836862349    2.49984780996971
H          -1.20668196529016    1.33561778131801    2.37604992159164
H           0.10438349574281    0.60553043372306    2.80415523423336
H           0.35377822094142    1.34656922784864    1.13493361568012
O          -1.93811263135291   -1.74846059233057    1.63082837026976
H          -0.98078671035112   -1.60153153471512    1.74422757009353
H          -2.55685798616420   -0.20616991726351    1.92947321278130
H          -2.04647574618768   -1.93832949747271    0.69509285111337
O          -0.12469138881858    0.67001891973175   -2.49544946673020
H           0.78054390703553    0.42134892787277   -2.85660572553987
H          -0.35073354719439   -0.35866534914638   -1.42360928397243
H           0.00700041959036    1.47028164007053   -1.97832952157298
N           2.33998806750997   -0.05905472861576   -3.08318048048798
H           2.45575851129969   -0.42810912918496   -2.13777787941945
H           3.06708508365335    0.62771697244781   -3.23918906965230
H           2.48982665419597   -0.82115197603648   -3.73212241648658
