    23
        -45.36293459  Gyration_radius:  2.48395353491 Dipole_moment: 1.872
 S           0.14528898359320    0.51751702943653   -0.86941702107422
O           0.01399143809976    0.25561020955128   -2.26540943172977
O          -1.15172670877249    0.11197978147492   -0.13162624208413
O           1.20327903279386   -0.44334526278938   -0.27992250608799
O           0.45287801008108    1.86731121352958   -0.48257907930160
O           0.53586105039303    1.21786613794061    3.29562990896775
H           0.68697477948127    1.79860593065049    4.04302895655579
O          -1.18749423115115    2.34417440846007    1.60263298453832
H          -0.17301562848798    1.64000414900137    2.75403882601546
H          -0.61434752438238    2.35172298800386    0.81372168101541
H          -1.88305689980788    1.71536709141010    1.39261114002833
O           2.32496561160529    1.09734901546920    1.34981640030266
H           2.01762009146566    1.86012223948072    0.84181216618716
H           1.75517497147316    1.06725388653252    2.16004913216959
H           1.74339997020029    0.08592512028260    0.42414970766895
O          -0.93682052812497   -2.39004193807347   -0.31864387930010
H          -1.18712114023989   -0.91527025072089   -0.17434335269921
H          -0.93134448279568   -2.51941070917722   -1.31608290805449
H          -0.02027122672787   -2.46467532754846   -0.03661147902685
N          -0.74257227069181   -2.39666991234553   -2.94812153344757
H          -1.58484261826695   -2.44811158117897   -3.50698692567133
H          -0.02503579850426   -2.93259156657929   -3.41987888889117
H          -0.44178489113919   -1.42069265275170   -2.92786765604271
