    23
        -45.36293442  Gyration_radius:  2.48320993455 Dipole_moment: 1.876
 S           0.73015296787470   -0.65558599534569    0.28865438800194
O           0.81338036927836    0.75471249079385   -0.33967259923061
O          -0.70970353951800   -1.10821011718524   -0.04631894691321
O           1.64961044065348   -1.53275683141428   -0.35912853951782
O           0.86654005409328   -0.49859801339145    1.71100534783780
O          -2.03850392034597    1.96304002038837    2.14486269105293
H          -2.38745263207204    2.41235332978539    2.91633586494262
O           0.61970713057840    2.15650540979226    2.10666747585093
H           0.82235705256781    1.20265993393487    2.10929897953507
H           0.90191904405036    2.46328350771448    1.24084693435629
H          -1.06845050645160    2.14465718330451    2.13235339171088
O          -1.82077435003863   -0.67401674684075    2.15950530848122
H          -1.28115243455819   -0.97297689040790    0.80387591739243
H          -0.96409249028570   -0.73189074598646    2.60346890169104
H          -2.04939586602082    0.29010027181499    2.14260534864974
O          -0.26615918862531    0.25563078799281   -2.55922961958072
H          -1.02975708270554   -0.22720385621389   -2.22915711331319
H           0.41879522547405    0.66273479102805   -1.28539774295168
H           0.35829846682127   -0.43707598256610   -2.93595737354517
N           1.41952481947538   -1.67175398811317   -3.18745218885563
H           1.09125722556279   -2.56152638592657   -3.54121522388793
H           1.64883131374365   -1.79311070646115   -2.19952821210106
H           2.27506790045534   -1.44097147669613   -3.67642299958988
