    23
        -45.36293442  Gyration_radius:  2.48321314764 Dipole_moment: 1.876
 S          -0.70191396258335    0.08819057085841    0.73875869574647
O           0.20355019757885    1.14092107596714    0.05864400275742
O          -0.69962412695811    0.28326010368792    2.15169693722378
O          -1.97616725045310    0.12728215985459    0.07462054356936
O           0.00717328269894   -1.24809504405169    0.41969576281664
O          -0.63091792106718   -0.50298746004671   -3.45811750674654
H          -1.06849646680498   -0.56243445224371   -4.30888794193730
O          -1.52728396565609    1.62274225530890   -2.12291760965580
H          -1.85949650744246    1.15422837061169   -1.33486672848772
H          -0.77898302762749    2.13477613907732   -1.80468848757466
H          -0.92961467539066    0.34478437981326   -3.05043054185387
O           2.44428565111801    0.26404377999156    0.80101034925492
H           2.30357386129278   -0.66156590471772    0.58054369883985
H           1.16640050885333    0.89486559362654    0.32497206776936
H           2.36365497609734    0.32610655443254    1.80168986171186
O          -1.42934242967728   -2.05625404695993   -1.47026505634336
H          -0.50217586627731   -1.68797911554561   -0.36435905294156
H          -2.15642278050107   -1.50241104819982   -1.15566945644266
H          -1.07209805692274   -1.59889589416672   -2.27355584332127
N           1.86531447165894    0.34897091393909    3.37172857651798
H           0.86893933476181    0.32733699481461    3.14796337327033
H           2.04610029618172    1.19813004534287    3.89187632581596
H           2.06354444711607   -0.43501599139887    3.98055803999763
