    23
        -45.36401761  Gyration_radius:  2.40224356352 Dipole_moment: 1.954
 S          -0.68114186021997    0.99271445597985   -0.66067198432207
O          -1.61981787209586    1.54357319286885    0.27122526080221
O          -0.91468266285259   -0.53094224205771   -0.77972706723322
O          -0.64059319890788    1.53466155705808   -1.97798231403787
O           0.72761117816349    1.08797386580287   -0.01430363758759
O           0.89736909098852   -0.00033230084005    2.56864670780006
H           1.10089274810164    0.49537679201445    1.76411746443705
O          -1.04162200993115   -1.47223908872268    1.54926088966386
H          -1.00318095862521   -0.95383041980027    0.16419128440935
H          -0.19214598293556   -1.15888286488311    1.95187620103570
H          -1.71528312218440   -0.96544108230628    2.02424042376598
O           1.95916188620478    0.84708234823122   -2.16760240334932
H           1.37529163082111    1.00503872386211   -0.82308246005368
H           1.84272420259270   -0.12477069229642   -2.35851249668523
H           1.21326869928114    1.28585791394742   -2.60331347259702
O          -1.73974775465699    0.91392495259252    2.83701560768533
H           0.18524824981346    0.48828111879009    3.00716324537169
H          -1.72192568340402    1.22328383290027    1.90623915221553
H          -2.33772671284786    1.50168805319275    3.30036714845945
N           1.22228109680495   -1.69932399560009   -2.49672112145593
H           0.32816008998914   -1.55046920909065   -2.03706042249727
H           1.71497736945080   -2.42537827228954   -1.99221229871358
H           1.04088159641074   -2.03784663936320   -3.43315369711832
