    23
        -45.36293464  Gyration_radius:  2.48369563622 Dipole_moment: 1.869
 S           0.09903715915412    0.95467539188532   -0.35289692038970
O          -0.02684220997947    1.81578222061554    0.79123738044976
O           1.16137731655281   -0.11479053686945   -0.00864661596784
O          -1.19539604417199    0.12664107601174   -0.52193313044887
O           0.41542433993057    1.57229801002999   -1.59907379575541
O          -0.85813606325761   -0.94548819527896    3.31634295815790
H          -1.02955287158011   -0.91925606880228    4.25907622339937
O          -2.28696945845636    0.57597015269518    1.69025722901847
H          -1.74476905902810    0.23146243877357    0.34707159032746
H          -1.87562924379531   -0.07629616386569    2.31290260161899
H          -1.76967366729021    1.38734016478364    1.78213312831316
O           1.29790450588767    0.51354697845965    2.74445262642108
H           0.87595675167942    1.13718582878212    2.12479939479354
H          -0.00437059928644   -0.47069395915891    3.17524971710628
H           1.89676670654432   -0.00379495815024    2.19940188342099
O           0.54331858776694   -1.84476980290801   -1.73144028721980
H          -0.40586210543018   -1.85299226505184   -1.57591779183742
H           0.67921413895890   -1.33585583293614   -2.58812938560154
H           1.02172586969651   -0.87526526591191   -0.68709590907491
N           0.78553933962145   -0.20640196746606   -3.78334797148092
H           0.66568066408677    0.59303584956857   -3.15893937399512
H           0.07046033060767   -0.15186351884419   -4.49774729845858
H           1.68479561177184   -0.11046958638506   -4.23775625280428
