    23
        -45.36293456  Gyration_radius:  2.48345686434 Dipole_moment: 1.868
 S          -0.36185770163105   -0.41824769509351    0.86049411167513
O          -1.17519885136712    0.59112585263926    1.48180791424718
O          -0.83302967636974   -0.55021283863453   -0.60619947369102
O           1.08820756051726    0.09948131715993    0.72129285339801
O          -0.33366655341372   -1.70240065305557    1.48090101394716
O          -0.37479446671620    3.38038492598548   -1.02329491636096
H          -0.67395609735448    4.28840984893304   -1.09109437401760
O           1.21177537505855   -1.65857646418454   -1.57182962115307
H          -0.07020176719262   -1.03025439023910   -1.10196118120765
H           1.87189091397824   -1.07366604397361   -1.18801649906745
H           1.25146024871461   -2.50987766789007   -1.03778235227327
O           0.73003345858101    2.52947870328276    1.22542533911895
H           0.44280615911797    2.92487841901129    0.36336090796565
H          -0.08457131023248    2.31290204126638    1.69857000013901
H           1.07312083303214    1.11561713086921    0.90946584132987
O          -2.45081858196421    1.76846948194042   -0.58033348614813
H          -2.14259989474252    1.38213136904068    0.26030371306784
H          -1.18702160345638    2.82410360964927   -0.95328524432347
H          -2.42782417858180    1.03977202559551   -1.20629707791098
N           1.17389957792401   -3.68557322060455    0.11409152140079
H           0.61917242413504   -3.13095754081997    0.76835840657606
H           2.01337774612858   -3.98385184680697    0.59467063511430
H           0.63979636583173   -4.51313638407869   -0.11864802180695
