    23
        -45.36293438  Gyration_radius:  2.48355362764 Dipole_moment: 1.870
 S           0.15812446968662    0.92014704918771   -0.41712167043535
O           0.87862783929790    1.68451998705097    0.56407656725108
O          -1.07864660181966    0.31640989397510    0.28764794944495
O          -0.24217460803521    1.60041329268010   -1.60526335120481
O           0.98444916087391   -0.32553154581884   -0.81139606259698
O           1.31605807635679   -1.17124355001325    3.08308185556469
H           1.72673865312872   -1.20771100157484    3.94833170726933
O          -0.25016319317050    0.97847893597972    2.90803043723256
H           0.18382357757438    1.39710793860835    2.14164047782729
H          -1.11516525449907    0.71394606054904    2.58375409922311
H           0.68257353713179   -0.41484103667285    3.10715272003708
O           2.70740858129568   -0.29380565739529    1.01046708815236
H           2.55446160479715    0.65165777909019    1.14076694363926
H           2.27208770467565   -0.74434271516654    1.77826076815427
H           1.74400040006843   -0.42439641827480   -0.11795416854477
O          -1.59052521783030   -1.53178054678993   -1.34464430912631
H          -1.76878735016547   -1.01331117676975   -2.18775028627451
H          -0.69848118589962   -1.88086692842014   -1.43175562554699
H          -1.40102194430909   -0.44787616629187   -0.32067586969410
N          -1.79719360419582    0.07190157527953   -3.42765959480163
H          -1.23781121764005    0.77474394420034   -2.94136040220042
H          -2.69373289397472    0.48807739336022   -3.64528219161850
H          -1.33465055336293   -0.14169710698325   -4.30234709179499
