    23
        -45.36293432  Gyration_radius:  2.4835778992 Dipole_moment: 1.869
 S          -0.67272179706622    0.12538625497623   -0.75962127811177
O           0.56045254613053   -0.79812586075511   -0.62775002910899
O          -0.42192258137658    1.20709261624749    0.31600775191835
O          -0.68027932247945    0.74737053838893   -2.04328817836032
O          -1.82825001543968   -0.65077224161471   -0.40123833795204
O          -0.57850214514848   -1.68819495974428    3.06985222484508
H          -0.96330706947196   -2.23876154361322    3.75354613249705
O          -1.94280386131944    0.37386755393811    2.12750248823441
H          -2.46600778375022   -0.10440539478574    1.47040707136093
H          -1.41452016091221   -0.31606980555985    2.60387011797717
H          -1.00507272101390    0.96913880209655    1.13508256587967
O           2.35119747719807    0.96611252433812   -0.47390137989387
H           1.92702087489324    1.52701545184470    0.18232414186008
H           1.37532308559274   -0.17183491653139   -0.58716696032994
H           2.24404806115386    1.43993887335575   -1.35444096423495
O          -0.80367481899402   -2.88782344060934    0.70015902330436
H          -1.31053449748751   -2.18963653528743    0.24569018758659
H           0.05279141406123   -2.89002468288713    0.26445378817164
H          -0.60672042854164   -2.21756297168562    2.23737421462528
N           1.69983543113603    2.13058687820087   -2.74848725097770
H           1.60093421361962    3.13579742489542   -2.81489306113805
H           0.76339334311264    1.72746724356699   -2.68596650596752
H           2.11932075610596    1.80343820121048   -3.60951578215881
