    23
        -45.36293464  Gyration_radius:  2.48383265576 Dipole_moment: 1.871
 S           0.20834058627193    0.69575498799392   -0.71942304652184
O           0.16345486062599    0.75936188952238   -2.14369768428776
O           0.51103727844473    1.91388085872255   -0.01884597042962
O          -1.13965826708435    0.17278978978319   -0.17133200612560
O           1.21122831446687   -0.40410330717767   -0.30148313660611
O           0.34187985524172    0.42747587584332    3.51140536094661
H           0.45376841360225    0.82055554543083    4.37841840423738
O           2.25014368404526    0.69622812803263    1.69807609151821
H           1.62913215546518    0.50101185323821    2.44523765635535
H           1.71341452087554   -0.06292697167908    0.53463935164834
H           1.98781677226394    1.56264179095027    1.35921610905336
O          -1.25246519046727    1.95614201132327    2.01934620298687
H          -0.32458253516061    0.98118614844731    3.03886216087041
H          -0.62975804005143    2.12447185254972    1.28803087339755
H          -1.94272410629007    1.41174257022854    1.63130519665206
O          -0.95078234151282   -2.22819255530423   -0.90672309349628
H          -1.18750860183206   -0.81709358410016   -0.44740071099220
H          -0.88307259577094   -2.12972047620811   -1.90544606238248
H          -0.05546764112999   -2.39104360885338   -0.59515998400052
N          -0.58773733577807   -1.64774514126686   -3.45286955837610
H           0.15059305824199   -2.08442384307341   -3.99032244501932
H          -0.27410482187932   -0.71068994685234   -3.19404719323643
H          -1.39294802252521   -1.54730384758762   -4.05778653614562
