    23
        -45.36293455  Gyration_radius:  2.48308173048 Dipole_moment: 1.874
 S          -0.23188351974139    0.31214235902465   -0.94805031224411
O           0.89349420199670    0.94786249904780   -0.09978247930379
O          -0.49191048205797   -1.03628145546950   -0.23773939703072
O          -1.42911658900170    1.09811355853647   -0.82493325838399
O           0.26110005879050    0.08171874698958   -2.26656957130427
O          -1.62745796832488    0.97505707398481    3.00140869003766
H          -2.26139711797152    1.33748552274687    3.62229543458804
O           1.89467775361555   -1.75871857572116    0.11557856800689
H           2.23034575056744   -0.93478632870108    0.48107521242833
H           0.43608499733333   -1.44698838458144   -0.06938741012263
H           2.23588295712632   -1.80194389037787   -0.82968342761378
O          -0.45179607227288    2.57553348415271    1.25280849393108
H          -0.80565428295835    2.04248659136368    2.00958868279306
H           0.45560898106637    1.65265606520323    0.51602222397478
H          -1.14460968776881    2.56541870193411    0.57885094077522
O          -2.90477167455843   -0.23144585783199    0.99721700988155
H          -2.14913993772743    0.46510428292535    2.33666252630214
H          -2.53401573810796    0.29647443232513    0.26593906786037
H          -2.54043543612445   -1.11168481306635    0.87158617726913
N           2.55699932099819   -1.58303899801784   -2.43031112322385
H           1.77093007545122   -0.95114620889060   -2.59212135202673
H           2.43489025004930   -2.38765798329912   -3.03192921583051
H           3.40217414961079   -1.10636082228193   -2.71852548075867
