    23
        -45.36401752  Gyration_radius:  2.40236829546 Dipole_moment: 1.942
 S          -0.64278654810158   -0.59950622192307    1.05231524837485
O           0.36461893659737   -1.23962059075349    1.84502119617983
O          -0.24847460121862    0.89634417775863    0.91684617592489
O          -0.55697939046635   -1.12199293938306   -0.40025394226630
O          -1.99968926446136   -0.70004984452002    1.47578829959684
O           2.37430427477230    1.33210828751839    0.01255249688178
H           1.49857117819947    1.47356443362053    0.39654241809761
O           2.96851786174546   -1.00178728708235    1.44806680383973
H           2.86755796950263    0.81167394406179    0.66372241534964
H           2.01922632066309   -1.09798950588738    1.67608741061522
H           3.45662722286335   -1.38958403796008    2.17557150390444
O          -2.53554303038801    1.65777401951921    0.28271753383265
H          -2.88932164681827    0.93846479636938    0.82681996748428
H          -1.13835495849967    1.36228787220583    0.64988948154326
H          -2.60085975421555    1.33413409506668   -0.65834612028788
O           1.84992338760594   -0.99393459157255   -1.11903129127173
H           2.07224992041236   -0.04312526983921   -0.95045482070495
H           2.37060612954223   -1.46726037010453   -0.45484231462468
H           0.42915555613741   -1.11335011697647   -0.72478855858742
N          -2.46934504059809    0.42196278983005   -2.08422386039227
H          -3.32285481234618    0.01378288834383   -2.44371612916724
H          -1.88581979746349   -0.33064063819159   -1.72924655900886
H          -1.98132990345796    0.85674408986463   -2.85703732525191
