    23
        -45.36293445  Gyration_radius:  2.48311406216 Dipole_moment: 1.876
 S           0.99705269551887    0.11976405876022   -0.19558842710233
O           1.81457060920927    1.08388588434996   -0.85638477531090
O           1.63700866710061   -1.09002409834648    0.24397850286225
O           0.29606663350960    0.79937442958978    1.00315790210461
O          -0.18111636823595   -0.28922602475197   -1.10953745418966
O          -1.49356811243329   -2.69624200804408    1.76260388744419
H          -1.63546540263557   -3.54106492676935    2.19266035003143
O          -1.52020132174194    1.84018540038462   -0.99409267086289
H          -0.87126499024797    2.50739200576820   -1.37540662152782
H          -0.79313564476295    0.53615070037706   -1.16222938175784
H          -1.49471960225683    1.96084510676501   -0.04017429130666
O           0.38678493183636   -1.07119195184356    2.67083922941126
H           1.13460762711794   -1.45883871259595    2.19664433475509
H           0.26831465964168    0.11212327027753    1.77429536745359
H          -0.39346113403484   -1.64228454019477    2.45365951723189
O          -0.08083550263226   -3.04053976244743   -0.47131536004170
H          -0.52258919573606   -2.59160383966020   -1.19707045018776
H           0.67069277006427   -2.46236902162215   -0.24364007500593
H          -1.05086333245766   -2.89278954385697    0.90264910767400
N           0.45103069192027    3.37738043159200   -1.83211460568582
H           0.57187323293632    3.52996216506010   -2.82530675019970
H           1.12702032149635    2.66887244643042   -1.54160031363142
H           0.68219776685467    4.24023852078621   -1.35602701221022
