    23
        -45.36140461  Gyration_radius:  2.48264422967 Dipole_moment: 3.036
 S           0.89465893587619    1.09368270938894    0.06318294611266
O           1.53919150981549   -0.12711247805312   -0.35093367115979
O          -0.47739270617563    0.71311268055343    0.69377939958639
O           1.62924166758251    1.74551176188227    1.22934861661271
O           0.70734779438284    2.05902852608920   -0.97419697179572
O          -2.17024155414230   -0.56790434441310   -2.63388202753996
H          -3.12030457917187   -0.51385611023185   -2.51769432940531
O          -1.31177393311934    1.95716255647199   -2.70538254317233
H          -1.85329279221819    0.36199103445921   -2.70854262693292
H          -0.61200016530971    2.05696072270282   -2.02843394054185
H          -0.93142378747172    2.29119234923069   -3.52008259601032
O           0.89181562253406    0.34377667749521    3.19867580735820
H           1.05252272941934   -0.57485044356065    2.82128903885438
H           1.41374196701615    1.21804504186377    2.08570716920808
H          -0.05718472956349    0.48924652673955    3.15443359339154
O          -0.82220835554046   -1.45550109141709   -0.54723160456533
H          -0.75166815817689   -0.17508202609365    0.26705777955770
H          -1.36219353293789   -1.22869593606259   -1.34726100940717
H           0.10260755832257   -1.39469571861763   -0.82600877697828
N           1.26510253731153   -1.89883599313368    1.86809653275085
H           1.96970634819528   -2.57703950260055    2.12770540909436
H           1.58305097458368   -1.41472928258379    1.02872174587113
H           0.42069662882972   -2.40140766010486    1.62165203912791
