    23
        -45.36140456  Gyration_radius:  2.48257657978 Dipole_moment: 3.035
 S           0.61996020019268    1.23268248316611    0.30821951865942
O           1.36016225944068    0.46980504490690   -0.66510820625033
O           1.20544496016049    1.27857087283510    1.61139688637737
O           0.36079462608454    2.65480841750647   -0.17666756151113
O          -0.81475354650109    0.63218958534651    0.38749900358209
O           0.22470332654801   -2.82164401741090    1.98763065552399
H          -0.54530710680927   -3.18217204457514    2.43053623553479
O          -1.54489035027809    2.34385815587457   -1.80736255385316
H          -2.20195712932668    1.96464468686878   -1.21726627221167
H          -0.39044046742390    2.62833098552526   -0.87867025554347
H          -1.17946288648929    1.57869585255899   -2.34854895182777
O          -0.23612429127609   -1.70680861094285   -0.35879110893278
H          -0.07731310756005   -2.22536688109505    0.47109665723666
H          -0.73058448147072   -0.34728037424535    0.10537883670986
H           0.62837191874706   -1.36305700117526   -0.62566400654792
O           0.92367718980556   -0.67018406548326    3.40262573621175
H           0.96880495947140    0.09108141098341    2.78903980655933
H           0.51563569387371   -2.05407950908902    2.53257450980640
H           1.76384884987214   -0.67799517597787    3.86535536628557
N          -0.38486663740285    0.25230673064991   -2.91200707644390
H           0.42867735720897    0.30782849533425   -2.29956810693862
H          -0.05964294587196    0.25109792364665   -3.87015721070027
H          -0.83473841099176   -0.63731295521869   -2.73154189173626
