    23
        -45.36293448  Gyration_radius:  2.4833593493 Dipole_moment: 1.876
 S          -0.56308820203984    0.76157587459218    0.38622810159579
O          -0.95834279153649    1.20222092444713    1.68396123625883
O          -1.15178906578806    1.43258209580778   -0.74046628641407
O           0.97790711534235    0.83370374811988    0.28420300286470
O          -0.85841927933907   -0.74786226869072    0.22816133714758
O           0.66227440046074   -0.59860382398081   -3.43731283905913
H           0.62447393944272   -0.57076254388675   -4.39467662571115
O          -1.80492348493425   -0.56542394193668   -2.42855102484291
H          -1.89452942003151   -1.27725865851497   -1.78925969005984
H          -1.71702182977826    0.24198603417969   -1.88891147225225
H          -0.27031777050309   -0.67751707000664   -3.12415805829459
O           0.92253339734104   -1.65517092488108    1.76006372710704
H           1.66038288478043   -1.13529885367840    1.42771380774273
H           0.66416440755168   -1.23955083635733    2.63877995771710
H          -0.19413405713702   -1.22889464432920    0.84913859960419
O           1.21554448213936    1.60971575070868   -2.08863187599912
H           1.20920606304685    1.14771852107227   -0.67257422950003
H           1.15247842625717    0.78395579344482   -2.63291082120275
H           0.32038269732693    1.97334797182096   -2.06022240432293
N           0.12758979892207   -0.26980516029451    3.85777337617963
H           0.78768596410896    0.24412025753841    4.42765584323682
H          -0.57340216587135   -0.66189024529432    4.47359250139327
H          -0.33865548971049    0.39711199012109    3.24040384681349
