    23
        -45.36293456  Gyration_radius:  2.48293969541 Dipole_moment: 1.877
 S          -0.83296728200250    0.31438502538317    0.50535026636846
O          -0.10425068583353   -1.00815033297626    0.83714944680432
O          -2.23606584130126    0.06393130857030    0.44848529282081
O          -0.38812961201088    1.34663476429586    1.40142211803081
O          -0.30174268293603    0.66777012536758   -0.90299924478137
O           3.34886078419171    0.99808265526856    0.62676925548213
H           4.11705232832451    1.47128152370605    0.95044141609670
O           1.69572989691377   -0.13926000739839    2.35153192730626
H           1.15636056908342    0.63846154936305    2.54799508195083
H           0.67996654872999   -0.77801747759757    1.46944406673066
H           2.40949883826418    0.17676859605884    1.74096753653415
O          -0.47883129097838   -1.60698259427357   -1.96825679098323
H          -0.06342615881638   -2.11503732973510   -1.26505076315142
H          -1.46566770653926   -1.78760711407304   -1.89501875298093
H          -0.35889213888748   -0.20206743244594   -1.44962469601300
O           1.42967066715212    2.72584734925365   -0.03382865480711
H           0.73687174311844    2.38969301028959    0.56450063247639
H           2.71186213431131    1.68349359266684    0.31277964484727
H           1.10935381056812    2.52169802467303   -0.91648959804715
N          -3.04921158417462   -1.88479248961800   -1.45212365151614
H          -3.41381220985074   -2.73936659764050   -1.05033176311098
H          -3.72834845784010   -1.54250254563855   -2.11991598734861
H          -2.97388166945883   -1.19426362341208   -0.70319678268315
