    23
        -45.36140464  Gyration_radius:  2.48240631866 Dipole_moment: 3.039
 S          -1.34962921857407   -0.39091463420133    0.16701082958665
O          -0.90312770559407   -0.51706808938588   -1.19749543022602
O          -1.51412956309553   -1.62740377101778    0.86501196200391
O          -0.32794147795370    0.51435032181618    0.91666636421322
O          -2.64112670096252    0.41423731766657    0.25985189005924
O           2.70326676498563   -2.01138721728663    0.78641996436977
H           3.30825539552031   -1.78030359819266    1.49331763772639
O          -1.82802241477305    2.79314221258228    0.00195874510197
H          -2.41435429175638    1.40955701511214    0.13358555762473
H          -1.23528364073119    2.84392046981389    0.75678853046289
H          -1.24159791793373    2.68343658992009   -0.80802668302920
O           1.67524465069025    0.02662266940340   -0.53639518263384
H           0.56185110026729    0.41086466784336    0.42290737092655
H           2.15791163504913   -0.71813976708441   -0.09444233310391
H           1.06673734543765   -0.38803008858971   -1.16447363673135
O           0.51068576229784   -2.93654487984580    1.99297265383114
H           1.91004311319293   -2.39786727997066    1.22474639273333
H          -0.25555968199288   -2.42887576521192    1.65667446136922
H           0.27764659306180   -3.85999847853120    1.87917407761197
N          -0.25776844064381    2.14058292444993   -2.01004301089324
H           0.73521832397149    2.17532468697422   -1.81217085214117
H          -0.40268680274298    2.48479793468934   -2.95043946346789
H          -0.53563282771959    1.15969674904998   -1.98359984539751
