    23
        -45.36293429  Gyration_radius:  2.48356037838 Dipole_moment: 1.872
 S          -0.17923010590170    0.93831464150130   -0.36577605538227
O          -0.43500060885402    1.76998066386288    0.77836155153621
O          -1.09237057834865   -0.30361795186050   -0.24471266555160
O          -0.33698393538665    1.53537809535936   -1.65160265800074
O           1.24391478374115    0.34283088101453   -0.26497590305639
O           0.31557648030026   -0.90514700869360    3.41945014563595
H           0.28492008814622   -0.88803802347260    4.37728290027965
O          -1.89202189054723    0.20389737217574    2.41876241876413
H          -1.46296967251886    0.90824296245756    1.89839983874979
H          -2.27305666379612   -0.38595100014687    1.76282655869140
H          -0.55862330672324   -0.57014743183061    3.10701842483787
O           1.77039103750805    0.88702058273095    2.12583003794240
H           1.35611869398143    0.15461620331963    2.64921553849941
H           1.57919263972786    0.50540382065560    0.69860991405945
H           1.11701138395510    1.59910154701311    2.10950890667798
O           0.14490663375599   -1.84790920965615   -1.80221360489580
H           0.09321635500571   -1.34251385367095   -2.67024495926535
H           1.03117774140144   -1.69726102336669   -1.46009961213353
H          -0.69151868864788   -1.00798281501829   -0.87836736578199
N           0.02655025065648   -0.20956067041578   -3.86478172215428
H           0.84404372998484   -0.01405262776356   -4.42885750299894
H          -0.11181978845712    0.57889335101842   -3.23027284235313
H          -0.77342457923334   -0.25149851563616   -4.48336136408822
