    23
        -45.36293447  Gyration_radius:  2.48339882564 Dipole_moment: 1.876
 S           0.63284096277393    0.79674416269083   -0.10407171151184
O           0.96568723193457    1.21773072814933    1.22943339114464
O          -0.89411489821966    0.91221172877563   -0.31715916908165
O           1.29763197357300    1.45787141965393   -1.17899560790968
O           0.88733242596467   -0.72630749932719   -0.18241263507572
O          -1.38511728469620   -1.20935157684878    3.03859124092163
H          -1.55364224908061   -1.36425662872597    3.96937747834901
O          -1.63597074853817    1.23493932796743    2.05658591767079
H          -1.32558329720907    1.04901412551808    0.61160590158698
H          -1.69122723459364    0.31934358593496    2.43171424715074
H          -0.75560710578061    1.55994066853444    2.28830922927823
O           1.24112191246840   -1.08863556424832    2.59799923645351
H           1.46587229119984   -1.66994237837352    1.86655351481660
H           1.27112866478801   -0.19084958781459    2.21860305619198
H          -0.40703857573536   -1.26632708673303    2.91964439972100
O          -0.52286416050066   -1.25285395796961   -2.20123223097062
H           0.37192758349184   -1.05320624977325   -1.01056582676885
H          -1.31485550662834   -0.77489081143028   -1.93769341699071
H          -0.08172776206397   -0.68984033502335   -2.90839471010499
N           0.70419839764152    0.46960032728766   -3.77571141278291
H           1.02686698580449    0.98789849548759   -2.95681655807272
H           0.18197038792365    1.10895948193667   -4.36149109709438
H           1.52116998547988    0.17220762433868   -4.29387322694274
