    23
        -45.36140459  Gyration_radius:  2.48264355882 Dipole_moment: 3.035
 S          -0.41711631759443   -1.28674855914240    0.41356589134030
O           0.92223038930638   -1.28265334968885   -0.11871133695878
O          -1.40222167528072   -1.87962388422044   -0.43570282704822
O          -0.47105570489775   -1.95044874192861    1.78523327203770
O          -0.80327109799786    0.18775023320293    0.73223600852995
O          -0.91221181781390    1.45035478623117   -3.00578502081216
H          -1.46786625618849    2.23107232448142   -3.03399251734879
O           0.72254349336101    1.29860233714869   -0.94092972518028
H           1.15703862734194    0.44088302644329   -1.05154857282758
H           0.17787222959417    1.43437651070834   -1.75822319453410
H          -0.24500794757779    0.77141195737220    0.10459181420413
O          -2.55371881638388   -0.57854126462694   -2.45199338316412
H          -2.20231875807499   -1.04459163903946   -1.66633094297166
H          -1.52002551944867    0.69098006778906   -2.84855022727518
H          -2.68662730751482   -1.25775055694764   -3.11607412561201
O           0.44109420825491   -0.14873006757808    3.30512836273626
H          -0.08543333761666   -1.29622458915828    2.47870639184328
H           1.26695897716309    0.10456732159088    2.78963932242693
H          -0.20263392805776    0.54494733029305    3.13743185828444
N           2.41636809702280    0.38810734518418    1.64664674927852
H           2.12391195693608   -0.32370577069188    0.97751202427365
H           3.38678041274158    0.22249117365839    1.88047560659368
H           2.35471008280856    1.28347401892574    1.17667457224562
