    23
        -45.36140449  Gyration_radius:  2.48244458014 Dipole_moment: 3.033
 S          -1.27040427816131   -0.10185907782109   -0.61365912631449
O          -0.17585793998231    0.99308541623170   -0.44558291959268
O          -0.63719767579398   -1.38405084550992   -0.43435981971931
O          -2.36509997732979    0.15922304185278    0.26756230235925
O          -1.72622331276586    0.09941186754122   -2.05463906107749
O           0.47212031725243    0.41034434904042    3.40147744687702
H           0.85102619247984    1.21606403251226    3.75684017341536
O          -2.04551399331562    1.02276593275503    2.76497210557921
H          -0.47161937540917    0.61729368171815    3.20852073176215
H          -2.18522737622185    0.78584486872752    1.82568922334269
H          -2.75830785039556    0.59810884411223    3.24630789925850
O           1.38452346557499   -0.32204480667774    1.03700953797432
H           1.14056889741915   -0.08261450244773    1.96768532134960
H           0.86230994005242   -1.10746316342377    0.82002278083512
H           0.54491708427420    0.58695172168863    0.15577173219804
O           0.43055522386339    0.67437136796214   -3.24008350773394
H          -0.90093904170421    0.31091217721274   -2.63084460704538
H           0.67721441414688    1.46484566978154   -2.75222634309157
H           1.01645376947228   -0.06497825225682   -2.89079240381047
N           1.72954823381427   -1.26803015992284   -2.02352851081615
H           2.10664917103718   -2.06619297820211   -2.51801489405237
H           0.90498325184172   -1.57373468529074   -1.50718136895816
H           2.41552084985034   -0.96825448959529   -1.34094669273332
