    23
        -45.36293445  Gyration_radius:  2.48308546664 Dipole_moment: 1.878
 S           0.90053892400066   -0.48570764521869   -0.00828299535262
O           0.04755935611999    0.10371042696928   -1.15527393272388
O          -0.11457829078025   -0.63319898830798    1.14845081560374
O           1.37562199271262   -1.78101560194915   -0.37016471595000
O           1.88738979019890    0.49965055814938    0.34031888328245
O          -0.58519549661765    3.33797645164353    1.05895042601790
H          -0.45436621988850    4.24933265363077    1.32563457054477
O           0.47947769166101    1.39243269375742    2.50222419792861
H           1.36022905882203    1.40138106604684    2.10402228970906
H          -0.01555174903219    2.13692454155181    2.07473274793144
H           0.03125973398448    0.16345928257943    1.79009488478809
O           1.07198538224721    2.72861057629239   -0.93797115312715
H           1.53679468155820    1.98940415392346   -0.50387661214885
H           0.57248036849481    2.31838526189860   -1.64905701386654
H          -0.01782839569893    3.19647003231519    0.26386364394968
O          -1.97554319694465   -1.37973326060637   -0.93771285015710
H          -0.81303792991002   -0.45953988671154   -1.18119665965775
H          -1.57723594318406   -2.28898377346588   -1.09998733525940
H          -2.09132262372118   -1.30707088562060    0.01438573880629
N          -0.62077996277929   -3.62695250622134   -1.19374482496713
H           0.23317991824668   -3.14480305681912   -0.90798511396971
H          -0.46482964209183   -4.00853056480160   -2.11809193387890
H          -0.76624745741128   -4.40220151900628   -0.55933304752061
