    23
        -45.36514206  Gyration_radius:  2.28502574757 Dipole_moment: 7.086
 S          -0.45240919394060    1.83468744309069    0.47696180561065
O          -0.00391544700294    1.69346978984084   -0.94161440950449
O          -1.27597938958723    2.97197486024484    0.69409509384109
O          -1.07420416486708    0.56414346395960    0.87704992051930
O           0.86289079185418    1.96349897884371    1.32038995246332
O           1.25637708869562   -2.04107306459627    0.33632688131305
H           1.76554444311602   -2.82586203604204    0.54304723920099
O           0.55554628556886   -0.69979452062712    2.49049089713568
H           1.14934092081065   -0.02270140144251    2.82350196489091
H          -0.15239150720889   -0.20744909274099    2.01284075047533
H           1.02240602848934   -1.62212945833794    1.20766457006966
O           2.25046588130319    0.46467687539376   -0.31163829755563
H           1.52963301085308    1.42886375085173    0.82233179806295
H           1.99506182408057   -0.46709859636222   -0.19687056478394
H           1.57326584464668    0.87011992723752   -0.88027694183326
O          -1.35809354510086   -1.71206924067645   -0.42093053933440
H          -1.43441326235214   -0.98666644090998    0.23683002581909
H          -1.51120654148716   -0.73371674316967   -1.57769473732624
H          -0.44249872336435   -2.02614466261225   -0.30487366256783
N          -1.57106717401322    0.15679303341056   -2.19515061632063
H          -0.89777291286625    0.88149698714716   -1.68607230168043
H          -2.51625652661814    0.52638509425531   -2.17684674463843
H          -1.27032371100936   -0.01140492675816   -3.14956209385813
