    23
        -45.36401746  Gyration_radius:  2.40198562598 Dipole_moment: 1.951
 S           0.12955866635398    1.29081772754715   -0.45414760684212
O          -0.71869586635948    2.20208971346580   -1.14757330518911
O           1.44817012116579    1.72575965749729   -0.10063375956259
O          -0.56965377267990    0.81656516298764    0.84879335437422
O           0.22729484700187   -0.00265010732047   -1.29554862691588
O           0.89599562373090   -1.05662699691506    2.34124694232728
H           0.23923980609001   -0.39433789444232    2.08725036895633
O           1.76765718191471   -1.58621025216687   -0.09279630776367
H           1.35590928279960   -1.64198551652659    0.80685846816874
H           0.88012795263119   -0.67286539640544   -0.84591567110235
H           2.59492866863354   -1.11085936621419    0.06795750819315
O           3.13248363557234    0.34851049019995    1.40340917328873
H           2.54221110858153    0.92795695612413    0.87592693553387
H           1.72986501580449   -0.57496426683790    2.44605024330726
H           3.89091998687044    0.88516219773414    1.63711139820337
O          -2.87578018770802    0.98648828355275   -0.08057173351966
H          -1.58076230970183    0.84125068082013    0.60832890487243
H          -2.56104164277267    1.71433567727341   -0.63721243416756
H          -2.90986959435023    0.19030852085340   -0.68024842442414
N          -2.52137287181809   -1.04734021103494   -1.77535636416419
H          -1.53456007108101   -0.83704978553291   -1.89747856227929
H          -2.96503424236467   -1.00823038160599   -2.68421744392729
H          -2.59759133827957   -1.99612487306973   -1.43123305738852
