    23
        -45.36293442  Gyration_radius:  2.48314172147 Dipole_moment: 1.878
 S           0.09932938811442   -0.86625684140379   -0.53513559949303
O          -1.17679432097620   -1.10051858185551   -1.15395723668933
O          -0.15781541966244   -0.61854595780006    0.96924511904630
O           1.09585283102846   -1.87336760339378   -0.69994756135710
O           0.67130084772370    0.48442109687190   -1.02387977710187
O          -2.80998917164140    2.17035779305868   -0.00471860015186
H          -3.69035501215829    2.52687401372262   -0.13375360461581
O          -1.37390400840555    1.44998592791385   -2.10727562254797
H          -1.73738071132590    0.56081042894813   -2.21516946720220
H          -1.88486093223626    1.86004537737380   -1.36377107013770
H          -0.09495166856280    0.99036523682211   -1.49767785063673
O          -2.96447216986187   -0.38637523726485    0.73327716370801
H          -2.92890316486810    1.25856611649121    0.35387851403392
H          -2.44633803986572   -0.76767989566329    0.00044188688904
H          -2.42048754445105   -0.52336556327754    1.51349292233620
O           1.99956925560746    0.54507949018348    1.54611167721192
H           2.01350927684485    1.16866776768898    0.81392111680238
H           0.69295427891951   -0.16357990446452    1.32662072197105
H           2.67738933970545   -0.16289179177073    1.32027469685221
N           3.53726071297797   -1.41267346490545    0.67787614651482
H           2.77374579526032   -1.75149611787125    0.09000959095374
H           3.79317124097168   -2.15925445094967    1.31149258598118
H           4.33216920684391   -1.22916784843916    0.07864423762381
