    23
        -45.36293448  Gyration_radius:  2.48335217899 Dipole_moment: 1.876
 S          -0.48370607837841   -0.54194792821669    0.72019192874040
O          -0.93411454435988    0.68039363217514   -0.11264674504272
O          -1.52519067186181   -1.51575678617990    0.75893691003326
O           0.69925513642900   -1.11079233295165   -0.09674187962294
O          -0.00341308446991   -0.04651807915342    1.98118540186933
O           2.61420842149989    2.34544354528001    0.52626252179747
H           3.22831335138968    2.95305841338467    0.94152968676121
O           2.61880949774434   -0.20316494307892    1.23764697261877
H           1.57012580072741   -0.79707199170256    0.36227482535621
H           2.74605978410144    0.72074536142355    0.90251029980141
H           2.04471972316452   -0.12410886388779    2.01129319901334
O          -0.88644275443569   -0.36945231909878   -2.40110902412656
H          -1.55853683809666   -1.11057249348887   -2.29738218296536
H          -0.98162641473701    0.35240370668325   -1.08656062679229
H          -0.02142705129804   -0.78526344727498   -2.33795300644926
O           0.19387764435517    2.61639566493582    1.60988188711672
H          -0.45639366792789    2.71783071987550    0.90968051977915
H           0.08312482366931    1.69827255510824    1.91914589789889
H           1.72361762966092    2.55260950544975    0.89770712485833
N          -2.52816193325788   -2.33368476712399   -1.77033023657233
H          -2.29927577021233   -2.20771036091958   -0.78288030573463
H          -2.31809679342774   -3.29254887039991   -2.01750264748957
H          -3.52572622029952   -2.19855991086421   -1.87514053082607
