    23
        -45.36293443  Gyration_radius:  2.48316819356 Dipole_moment: 1.876
 S           0.50013768719428   -0.86434769407461    0.22197394574857
O           0.76840901629204   -1.63453662433212    1.39214847277662
O           1.15711134142522   -1.26697628399732   -0.99153879139337
O          -1.02834905210332   -0.82216401796658   -0.00650915451564
O           0.86217443733111    0.61811746281737    0.47075024340322
O          -0.34776021898816    1.46838183857848   -3.21426059600688
H          -0.22988300374814    1.67615565867977   -4.14256476418771
O          -1.09301217010021   -0.97061798070595   -2.50897388752860
H          -0.95418678134909   -0.04053287256239   -2.82162955024232
H          -0.21722355244583   -1.37970592263344   -2.50824926456966
H          -1.18940873901002   -0.87554439716468   -1.02577818104808
O          -1.00830984711953    1.21582660583852    2.04711958076883
H           0.16512882750774    0.96683711306394    1.14237888559152
H          -1.73329623789719    0.83573288908428    1.54206223931348
H          -0.83951727821068    0.58215150927753    2.80978640874419
O           2.02257553788365    1.04698475726324   -2.07025808738257
H           1.85996678863317    0.13730603683141   -1.75890243407930
H           0.55730518199748    1.41445079222061   -2.82426646072801
H           2.08408128031948    1.57196194650952   -1.26775205705831
N          -0.44137615494522   -0.68698447733786    3.78174719689367
H           0.05027381078455   -1.20569145612631    3.05200076746353
H          -1.16446489214989   -1.28831941088427    4.15610135172291
H           0.21962401866316   -0.49848544232121    4.52461414629445
