    23
        -45.36293450  Gyration_radius:  2.4831167954 Dipole_moment: 1.873
 S           0.57206594203308   -0.00252974434792    0.84790763872515
O           0.99299742008736    0.95695564636256    1.81575834990197
O           1.13965402154898   -1.31981536499686    0.94223205364583
O          -0.97048861184681   -0.10010421436280    0.88189358791476
O           0.86255274175838    0.52218661040558   -0.57729325142352
O          -0.72957453110805   -2.79706736944388   -2.05906647981876
H          -0.71193735533481   -3.66648274159549   -2.46223873557870
O           1.75797638487724   -1.95458001646012   -1.60378283435328
H           1.68110063683889   -1.82867340629023   -0.63986396797524
H           0.20934140752318   -2.49884713729668   -1.99904974005216
H           1.86074130021127   -1.06727448006746   -1.95804153611315
O          -0.89011754412317    2.32711121367900   -0.69011539292166
H          -0.61496668253988    2.92457707427585    0.07072064757260
H           0.20988292004669    1.30339399372365   -0.72519674493740
H          -1.63323169377838    1.80977552101199   -0.36558106016641
O          -1.25378334812232   -2.56596056450347    0.52409079775723
H          -0.35803132512465   -2.71823616981773    0.85387854751634
H          -1.22004501305299   -1.09271505908521    0.74012772499686
H          -1.20207267671593   -2.68594595407898   -0.45828387269354
N          -0.05510184522084    3.57611650514889    1.47680028013815
H           0.40101623570248    2.71927489550901    1.79470163351676
H          -0.70396133867971    3.86742149263972    2.19705906313112
H           0.65598295505579    4.29141927957187    1.39334328125607
