    23
        -45.36293444  Gyration_radius:  2.48356379229 Dipole_moment: 1.873
 S          -0.42738407083981   -0.88673627509296    0.27767667093277
O           0.53761437879614   -1.54969872252965    1.11159249938425
O           0.29919837496237   -0.46524501631005   -1.02041527490963
O          -1.61546467021314   -1.60867481588636   -0.04148405512392
O          -0.82263608097796    0.46426154065067    0.91705247081960
O           3.07574644589753    1.32155799891545    1.18880566166432
H           3.93501383678683    1.40597501405863    1.60510699062034
O           2.90221907622372   -1.02150377623064   -0.07042019725709
H           2.12692186726882   -1.37148085187250    0.40637045219113
H           2.59124514802262   -0.87631733025483   -0.96796666945693
H           3.10126765564620    0.48535882724082    0.66516430057970
O           0.97471026796607    0.65984757350995    2.65496775040745
H           1.75274664173288    1.04062085223995    2.17361618738401
H          -0.13895471431281    0.66295992280319    1.66579371040858
H           1.09876308371620   -0.29857053423233    2.63617084255155
O          -1.30897856134784    1.30491154560662   -1.80900474934460
H          -0.29793920400257    0.25095876700550   -1.45492609178007
H          -2.15433831346454    0.77233305823578   -1.92497784879479
H          -1.40497269625934    1.77641200629143   -0.97616721902629
N          -3.40240355762145   -0.29788546030982   -1.81945108648015
H          -4.28152018876663   -0.01646459376595   -1.40402534797380
H          -2.92967120523895   -0.91931412282945   -1.16089252539707
H          -3.61118352388962   -0.83330560724077   -2.65258649139950
