    23
        -45.36293445  Gyration_radius:  2.4832861851 Dipole_moment: 1.876
 S           0.41611514484704   -0.76849533757990    0.53140227437905
O           0.95902918508406    0.06784629996287   -0.65032609821877
O           0.68477765538676   -2.15222600268677    0.31326639777765
O           0.93013399903495   -0.18439837060943    1.74009053465487
O          -1.11106141236080   -0.54007490198376    0.45499744201695
O          -0.42415666343380    3.34527202881890    1.11277318759961
H          -0.35491006003028    4.15720020956237    1.61752454536844
O          -0.70735523693796   -0.61727040870582   -2.40973240441581
H          -0.55352524283845   -1.61007014754516   -2.45794887726111
H          -1.50690469990640   -0.49786974800797   -1.88857249726837
H           0.35868369503248   -0.16143274241442   -1.45367129892874
O           1.96442509665968    2.17419275321167    0.94342564886856
H           0.49624100914119    3.00597439096964    1.00394960261152
H           1.72531983182389    1.32441012568896    1.35767727561443
H           2.14476540636280    1.95555323500403    0.02521611766725
O          -1.38132934170162    1.16753182010837    2.27160710833522
H          -1.16360386004996    2.03282395904650    1.84038924341013
H          -1.35381499107554    0.16338035846104    1.17181090338055
H          -0.55917654708495    0.86457974829521    2.67985483508905
N          -0.22845425477759   -3.19844301719723   -2.16522908989741
H           0.14581081003080   -3.04003995668959   -1.22810465262540
H           0.50336412531018   -3.62118203380558   -2.72209329756340
H          -0.98437363858862   -3.86726228195801   -2.08830691062667
