    23
        -45.36514204  Gyration_radius:  2.28497332196 Dipole_moment: 7.086
 S          -0.64067162547009    1.23103558874029   -1.36840186054397
O          -0.90127398846035    1.72533800861615   -2.67476552116097
O           0.72632577140452    1.57216448981020   -0.87011377132286
O          -1.63347755904934    1.88494456885862   -0.34630450717761
O          -0.81365319750302   -0.22286932598429   -1.23652628272943
O          -0.22656052523431   -1.11793748259069    2.13470706454285
H          -0.39293318474193   -1.54667744874323    2.97518503461240
O           0.00373222038038    1.60575301999951    1.67272377382030
H           0.03021285085823    0.67210793405719    1.94524951203167
H           0.59059510221187    1.68666353821069    0.90112989234692
H          -1.15153377310491    1.86091277314471    0.51722166646688
O           0.77100781648932   -2.07438798578460   -0.23314056641364
H           1.81172006874607   -1.14632682351421   -0.84486376258265
H           0.59274087534902   -1.88244448595422    0.70591264220386
H           0.04355353859408   -1.60991520878962   -0.70195372164753
O          -2.43465310826346   -0.69944887751190    0.76386322430874
H          -1.94387490523045   -0.57589622945028   -0.08210155400201
H          -1.11045761850353   -1.02688271537471    1.68749052416470
H          -2.90999891485923    0.12372538760091    0.89909681601160
N           2.32057572744526   -0.33026811488278   -1.34792539632418
H           3.24929507427179   -0.16280711845188   -0.97498944864846
H           1.65704646204149    0.54586204526695   -1.17589750628088
H           2.36228285262831   -0.51264551727419   -2.34559625167728
