    23
        -45.36293441  Gyration_radius:  2.48334670996 Dipole_moment: 1.877
 S           0.71903803554573    0.72706188228990    0.00503627299571
O           1.29316267712283    0.72870928963042   -1.31276688147564
O           1.31384219336210    1.58843715028090    0.97386126874966
O          -0.79021712267252    1.04956141997491   -0.08766596669628
O           0.73868439541385   -0.73304775813025    0.51339517872428
O          -1.10309163433392   -1.85449140564257   -2.82061719543976
H          -1.15960183601567   -2.24275129831315   -3.69517645473125
O           1.42521010415196   -1.88088139885407   -1.97624949226560
H           1.45937765924224   -2.25769058500581   -1.09293563662495
H          -0.16973480298365   -1.97415287926171   -2.52292162904463
H           1.52971833711596   -0.92100786310873   -1.83993868198764
O          -1.13660620532027    0.77826102527804   -2.55664198594885
H          -1.26919632385174   -0.19492620662174   -2.68843465677972
H          -1.06257313074267    0.96772140686480   -1.08093210586882
H          -0.19497196555174    0.93670342721402   -2.70691933393971
O          -1.00217228349170   -0.53783857886855    2.32232275635906
H           0.07020618017514   -0.76536680608683    1.29485957152731
H          -0.58804755003939    0.15034534837783    2.92785130480224
H          -1.67182961511764   -0.07313888501221    1.81169775085424
N           0.22744831823805    1.41753336420081    3.59336349508207
H           0.73251497949992    1.65550928662505    2.73802181627187
H           0.91268367849379    1.19272055032422    4.30347745994831
H          -0.27384409433742    2.24272953431226    3.89731311759587
