    23
        -45.36777556  Gyration_radius:  2.48086030043 Dipole_moment: 4.062
 S          -1.01572814052416    0.12552226542150    0.80491420741619
O           0.02895371363373    1.06232309245363    0.35851800275533
O          -1.58285535125512    0.66295761190089    2.15784405172513
O          -2.11532603605818    0.13534699885246   -0.17242747567211
O          -0.48289119960670   -1.19090358159096    1.03251428051142
O           3.17544862340666   -1.43926756627711   -0.37445367518572
H           3.57633947353437   -2.10170864914705    0.19092873294711
O          -3.35837459005685    2.17808460090678    0.89500803997353
H          -4.26184601723679    1.94238300981871    1.11727259528039
H          -2.18605682776832    1.39859859255240    1.91958234461805
H          -3.03232676139864    1.48097643973529    0.28644589484372
O           2.46247008599548    0.56254274431614    1.25166056792805
H           2.87305904731974    1.42896730276719    1.24501352835421
H           1.52005510635121    0.70874601732616    1.01625694390101
H           2.95191285175572   -0.68640587877505    0.21869411490053
O           0.73107768127440   -2.17958651799260   -1.10884819266311
H           0.26900261242817   -2.03790627474948   -0.25247669017418
H           0.22059005741178   -0.98455665385695   -1.78238145138669
H           1.68257822927724   -1.99275121084611   -0.91403028658075
N          -0.24068362785605    0.00364140012437   -1.99521543532751
H          -1.22858317196882   -0.05918572441048   -1.67308932489861
H          -0.13817244615893    0.32959116652904   -2.95012617572033
H           0.15135667749983    0.65259080494107   -1.27160460754291
