    23
        -45.36293446  Gyration_radius:  2.48323800855 Dipole_moment: 1.876
 S           0.01807078834028    0.98234237025688   -0.28456555104908
O           0.15034904269685    1.70405668711841   -1.50773517089546
O           0.01797426253038    1.74918875465623    0.93128142715801
O          -1.26278928689503    0.11915496033319   -0.35211292763505
O           1.14695554962431   -0.06752107651785   -0.16578950767170
O          -0.38175831622975   -1.22920538683229    3.30925807690425
H          -0.42717509696857   -1.28411322596492    4.26514424088297
O          -2.06234066183018    0.35124237992358    2.01339697179019
H          -1.69413378923132    0.13354723347760    0.58671094820526
H          -1.55117754003054   -0.32893077382755    2.52151020455727
H          -1.56290717260343    1.17406298078473    2.10235232233900
O           1.63151854378697    0.36072924001935    2.58541399071477
H           0.42984230735286   -0.70851910555651    3.09876741246481
H           2.16847142269294   -0.08895086174329    1.92745780617132
H           1.11134121451725    1.01085828014875    2.07781390001570
O           0.36048618414092   -1.68559634758198   -1.92794147294590
H           0.37241234588321   -1.10863424193277   -2.75169350072842
H           0.94183039720048   -0.77997596616515   -0.87896252913075
H          -0.56046054212148   -1.74040927634110   -1.65593715694441
N           0.29622684206532    0.11165710696239   -3.85602787311355
H           0.23189488401069    0.85618989126756   -3.15967178910190
H          -0.50349257572894    0.19257403325663   -4.47129303322268
H           1.12886118683832    0.27625234421282   -4.40737679876722
