    23
        -45.36777556  Gyration_radius:  2.48087762687 Dipole_moment: 4.062
 S           1.23805715306078    0.30013602841447   -0.26981690335092
O           1.43876833868951    1.41745877153420    0.66596636294758
O          -0.02387348283528    0.50853596477494   -0.99944763612199
O           2.39879715022597    0.34603484824720   -1.31454503268302
O           1.26782836080747   -0.98334656104874    0.37861062394462
O          -2.29303020850796   -2.63756379613213    0.28576558940770
H          -2.09205898031350   -3.57498347352898    0.29359877514447
O          -0.77532011293288   -1.33274902518547    2.03404210553674
H          -1.07713790343059    0.06915619157519    1.74058362014625
H          -1.40176835880452   -1.86385153807887    1.48294657807838
H           0.07892877536406   -1.37285382645590    1.54866995706181
O          -1.16700486209234   -1.67606459066552   -1.94304522949404
H          -1.66387555108212   -1.34788476749145   -2.69453350019704
H          -0.64441802133234   -0.91335322818772   -1.61123264900163
H          -1.91445135635002   -2.29355148460110   -0.55501757581161
O           2.59865811382124    2.98231278110185   -1.08425899469750
H           3.46296089034241    3.25590326757484   -0.76906173416348
H           2.53953030906830    1.29591435160623   -1.51379891409630
H           2.12188055396372    2.62170471354457   -0.30626858803979
N          -1.08031430478383    1.08855283084529    1.29858085925001
H          -1.05539952176608    0.93958386156837    0.26144224426228
H          -0.12726944288228    1.47756463474585    1.45355318762229
H          -1.82948755822546    1.69334405584332    1.61726687425440
