    23
        -45.36777556  Gyration_radius:  2.48087742706 Dipole_moment: 4.062
 S          -0.92536605560791    0.49305198596246    0.77215811248038
O          -0.27721883643364   -0.54192618640093    1.53202507877814
O          -1.37415528761812    1.61616699165625    1.76113903665883
O          -0.00735187886185    1.10283561825361   -0.20440105581451
O          -2.12555860227883    0.01716037223707    0.06685306089066
O           3.20839737329108   -1.41410716478160   -0.05366114535049
H           3.71638392979056   -1.71438844958833    0.70197522979391
O           0.75633481835947   -2.43774672039581   -0.00896166720093
H           0.08912382494376   -1.72543099947866   -1.09982672441370
H           1.70785670371991   -2.17212545021619   -0.05653133810132
H           0.38437706356610   -1.90109329169378    0.72628347266366
O           2.54073781007107    1.12027649195227    0.48591163179073
H           2.88475644340662    1.87721103649678    0.00839747008323
H           1.56978531795025    1.12590554001036    0.33709827074987
H           2.99946526560809   -0.46956303606471    0.12734854290856
O          -3.38399212510436    2.31114823984605    0.17352520840778
H          -4.23768329324881    2.20618342073131    0.59945090755697
H          -2.05133371431986    2.13816128422426    1.28079691533679
H          -3.07921329175023    1.40863226716696   -0.06141391981521
N          -0.46277991537475   -0.96935194785793   -1.69839912385163
H          -1.40123675947389   -0.87563336977292   -1.25775780573864
H          -0.49169074267899   -1.14819959405089   -2.69628422736190
H          -0.03963806795682   -0.04716700823665   -1.43572592045094
