    23
        -45.36514202  Gyration_radius:  2.28494529039 Dipole_moment: 7.086
 S          -0.23350293563457    1.87210625277768   -0.48947212053477
O           0.05564076276303    2.31630557675590    0.98602154286746
O          -1.21269159332457    0.77884866073380   -0.40499260002341
O          -0.68013077820255    2.98727538304040   -1.24823734648780
O           1.05014720356793    1.29352342777558   -0.99028637873712
O           0.13294870419144   -1.77159761113864    1.64328898459956
H           0.14564881824785   -2.42653720651691    2.34240337601658
O          -1.57970027555624    0.17098856915209    2.11532661620043
H          -1.59333580041130    0.45424574675263    1.17120615542019
H          -0.55454418590892   -1.10048724805580    1.90135695337795
H          -1.27742681641192    0.94112713987746    2.60255984163393
O           1.81064984016096    0.42036362063953    1.38628745134854
H           1.35282602695960   -0.43185896844675    1.49005947722061
H           1.86242369315372    0.59332158594234    0.43038682036898
H           0.73450111919415    1.67374058430748    1.30973508323079
O          -0.97227473234044   -1.80512863834664   -0.86528966962202
H          -0.02467015689170   -1.26329982542493   -1.92677392204653
H          -0.52206028201852   -2.02965744285538   -0.03020599950949
H          -1.33449386143291   -0.90839164648746   -0.69402500800976
N           0.57724227380427   -0.62543013993614   -2.56617506415353
H           0.02299854552843   -0.30560077724119   -3.35413572513689
H           1.42399900343400   -1.08402493036137   -2.88611922733450
H           0.81580542712827    0.25016789705676   -1.92291925068996
