    23
        -45.36293445  Gyration_radius:  2.48298375274 Dipole_moment: 1.878
 S          -0.89483423853151   -0.08956092160603   -0.48872209934305
O           0.44931171981926    0.07374485438468   -1.23501286247368
O          -0.46115356907433   -0.51419683256775    0.93332315209994
O          -1.54029735444984    1.18976931574825   -0.37453337648799
O          -1.63792943988558   -1.13923132350031   -1.10560341919404
O           1.37499980646198    2.98090545585403    1.35141560543331
H           1.47542072785681    3.87820782685612    1.67321337408465
O           0.67726605273574    2.57015487265054   -1.16774752549153
H          -0.27886774187146    2.65513372979231   -1.05388085045972
H           1.07130522209532    2.76465916908906   -0.27951096557031
H           0.66037253743221    1.08457826087671   -1.27239488634855
O           1.28165819637689   -2.22338231511447    0.31497933438047
H           0.24500561410934   -1.25079199310826    0.80166591949080
H           0.73498635958221   -2.89043369397048   -0.20262721022545
H           1.75290741052055   -1.70091207209331   -0.34086033857335
O          -0.97268593044641    1.99178687119132    2.13582388380131
H           0.53860468193951    2.63587408622016    1.74572438058508
H          -1.33557773384109    1.79475966319024    1.25241494681423
H          -0.83398577805044    1.13101736413137    2.53986950118370
N          -0.35546441562904   -3.67375204201803   -1.15714631960076
H          -0.08779608333872   -3.99254355867381   -2.07985196853947
H          -0.96933408568082   -2.86533541229999   -1.27122953771075
H          -0.89391195812989   -4.41045132502430   -0.71930873786590
