    23
        -45.36777556  Gyration_radius:  2.48089439449 Dipole_moment: 4.064
 S           1.12452893798321    0.26156489498754   -0.60253738583129
O           0.74605036216229    1.48649758542596   -1.32428924287214
O           0.60721119547789   -0.93116234242028   -1.21763519835295
O           2.68449175555640    0.17542165214029   -0.60660872360432
O           0.69038978655332    0.37938514362953    0.79949028640472
O          -2.11676687802724   -2.57874019627986    1.08167013709401
H          -2.05098920316416   -3.50777765149353    0.85406791030688
O          -2.03977494937288   -1.06611693049573   -1.10194881822190
H          -1.08640400901011   -1.16822809683829   -1.31998239383996
H          -2.18433972919727   -1.66149811384568   -0.32550905605781
H          -1.94986221072409    0.28840113870629   -0.55416379503468
O           2.90232701174141    2.81973834689349   -0.66841795714595
H           3.35744711483203    3.12968612295894   -1.45455240295053
H           2.00091711194810    2.55937425482570   -0.95523479307440
H           3.00160568349299    1.09283374010257   -0.46688232601840
O           0.28042516244505   -1.90360266273992    2.06037471636531
H           0.51373904697345   -1.10662008669676    1.53570337340351
H           0.43792107052446   -1.67090914639751    2.97709046034180
H          -1.24844801277920   -2.34260630788754    1.48018857599553
N          -1.57175437380749    1.24430799040441   -0.13256507736820
H          -2.28823631412699    1.88624380548841    0.18862709893457
H          -0.93255151232958    1.64706628667584   -0.84897401993712
H          -0.87792703715321    0.96674055285310    0.60208864146475
