    23
        -45.36777554  Gyration_radius:  2.48087110942 Dipole_moment: 4.062
 S          -0.70831878281972   -0.37354204464236    1.02668370380340
O          -2.05460427767714   -0.33591276673362    0.43468243215493
O           0.19406925828383   -1.09834114394185    0.11642855725032
O          -0.20086144820289    0.93455395008293    1.34308691962771
O          -0.79912788569356   -1.19541772805463    2.35229658513783
O           2.82325847006513    1.82257485145515   -1.00072202922423
H           3.34492172941681    2.41778433661097   -0.45963732311094
O           0.23671603427521    2.40530656846498   -0.82065112058290
H          -0.39447558604169    1.29567154392295   -1.53648006758536
H           0.07088465545406    2.06799927728520    0.08804048821271
H           1.21007576418973    2.29336262004475   -0.95572801127275
O          -2.79701808754143   -2.65638936635010    1.39475317244875
H          -1.40724484630360   -1.94081742343844    2.16157678072670
H          -3.59798480753949   -2.56336321603403    1.91535161693477
H          -2.71260914580266   -1.83324909209135    0.86755791676049
O           2.75492839107640   -0.49519812135710    0.33449133050241
H           1.79492584577068   -0.70148488826464    0.36274043294170
H           3.18792620944410   -1.29697806379882    0.03621964298751
H           2.83420435755996    0.95896005383656   -0.52886522751706
N          -0.84678253551119    0.31429750416155   -1.79532546148032
H          -1.02827575906234    0.17132961098237   -2.78286526532169
H          -1.68813694136093    0.21142361109939   -1.19105184603902
H          -0.21647060197822   -0.40257011323900   -1.36258323735713
