    23
        -45.36777554  Gyration_radius:  2.48083415869 Dipole_moment: 4.062
 S           0.04978947758409    1.26473778070643    0.30517935337888
O           0.76479720093416    2.42015940288786    1.07636035725659
O          -0.54520220154652    1.84351700641084   -0.90946688042717
O           1.08027759785481    0.28831777237284   -0.08586422517302
O          -0.92869065977179    0.67826972357801    1.18116889520729
O          -0.49077509566257   -3.22328044624288    1.28957736783035
H          -0.81404155393596   -3.44982236492325    2.16328061265265
O           1.59486899853958   -1.59570391961482    1.69038346936779
H           0.30134481594627   -2.65873456802426    1.43944609460501
H           2.50286805742086   -1.83168348716603    1.49248388632652
H           1.38440224704371   -0.82731567355390    1.11571739537972
O           1.26182083814546    3.71884532453139   -1.18400801691197
H           0.84692199431489    4.58407569696925   -1.20547108737629
H           1.19006857145754    2.97516917328687    0.38867546379013
H           0.54586543394876    3.06495081235283   -1.33381567120778
O          -2.09334478241137   -1.45546279788600    0.11966676834391
H          -1.85187557980210   -0.66249786425675    0.64871327577798
H          -1.34830180970771   -1.09360935455936   -1.08694904924569
H          -1.58816987469216   -2.19731287127839    0.53522669819491
N          -0.64396359877822   -0.61593489644481   -1.80143619544941
H          -0.59294561605839   -1.05541973875833   -2.71406105720262
H           0.27141566459590   -0.56461572019573   -1.29362462857043
H          -0.89713013541861    0.39335098980621   -1.83118283654699
