    23
        -45.36293411  Gyration_radius:  2.48341606057 Dipole_moment: 1.875
 S          -0.30035116764812    0.96668194814216    0.14502914423770
O           0.76724047183733    0.35516899120332   -0.79137576723406
O           0.37833004028804    1.42235732680369    1.32735091250827
O          -1.08047232446520    1.92568056544421   -0.56668307013955
O          -1.19752861009801   -0.24220827964714    0.49679967363717
O           1.99507115253856   -1.94051958660619    2.20527804166022
H           2.58197818657622   -2.20496174061164    2.91542636478968
O          -0.31416288120134   -0.78337593139166    2.78057108733312
H          -0.92304087193370   -0.56663180745916    1.43856167761138
H           0.48736014955559   -1.34223893925608    2.61609473991350
H           0.01208153748382    0.12203440627079    2.87047941589124
O           2.84171768734146    0.34593759210161    1.12819794016516
H           2.03698846109484    0.87353927903179    1.28630313556892
H           2.40457779989065   -1.14603126190473    1.78675366878188
H           2.88531503264921    0.24826058715628    0.17325093736771
O          -0.74523670214442   -1.03348107431142   -2.24894812084341
H          -1.33681583240407   -0.32831269359124   -2.65439609171789
H           0.24853803027878   -0.22273727027993   -1.46634496306943
H          -1.26255630768697   -1.44307097988259   -1.54904530930949
N          -2.25678670458148    0.99880564325423   -2.98167769328616
H          -1.96095062173300    1.51724553258497   -2.15274875209447
H          -3.26696179209303    0.93615860940024   -2.96432024749217
H          -1.99433472357249    1.54169908356424   -3.79455675427401
