    23
        -45.36777556  Gyration_radius:  2.48085310884 Dipole_moment: 4.062
 S          -1.12902746130388   -0.53355959995551    0.36928514482195
O          -1.32704073614913   -0.06573806772408   -0.97631314537952
O          -0.73364219953579   -1.94935280076853    0.42925085099648
O          -0.12387789953160    0.27398456130041    1.08045772287297
O          -2.48025955681709   -0.38855420462657    1.14004480207146
O           1.45119237912722    2.54070085237083   -1.93224999733054
H           1.00906758219054    3.09621021921954   -2.57655963060511
O           0.04599939949582    2.79939120595603    0.33009256931352
H          -0.12584383994045    1.86700797344175    0.58712988663247
H           0.37696969230091    3.23320605911892    1.11849682792282
H           0.95818655609000    2.66945834459468   -1.09024231150746
O          -1.86439030847064   -2.40966419466324    2.74591807708238
H          -2.40234370477752   -0.97158294326926    1.92477262239538
H          -2.49015967382084   -3.13404311412358    2.67585313844633
H          -1.30414685726360   -2.44934872184768    1.94144724963470
O           0.92408049205822   -0.02537422584655   -2.37896677061244
H           1.19258443017231    0.92439807095637   -2.31523148823746
H           1.50618668877265   -0.68288441243375   -1.20805522489971
H          -0.00950896292626   -0.04159374211665   -2.07055876597227
N           1.66564563626333   -1.10732666234300   -0.19361051490757
H           0.94455768987461   -1.84785919459715   -0.06975785770890
H           1.30373352209145   -0.38075794618774    0.46937629443656
H           2.61203710210172   -1.41671745645799   -0.00057949946538
