    23
        -45.36293444  Gyration_radius:  2.48334365054 Dipole_moment: 1.877
 S           0.29273556449242   -0.97772036844370   -0.06586039026914
O           0.67404677672711    0.26184054862447   -0.90777369425682
O           1.31929741072615   -1.15377936869194    0.92481114531563
O          -1.02275007967358   -0.54707017225855    0.62290217679115
O           0.02084197559346   -2.08451782443089   -0.92347878290765
O           1.04253303809069    2.35224644991555    2.44742559722372
H           1.52324477562329    2.78304697495385    3.15602806593470
O          -1.58779744909485    0.77716416785345   -1.88758175739560
H          -0.18851156555080    0.54785918018143   -1.39005073370936
H          -1.78345143191798   -0.06649792578079   -2.39910009161989
H          -2.09995056483028    0.71977538224617   -1.07546657767151
O          -0.14578210902026    0.03174297173751    2.90002135208453
H           0.19028759470114    0.96001957499244    2.81366956488674
H          -0.78889683186066   -0.27582078163450    1.59202105897654
H           0.62019308296753   -0.53869738613566    2.75089555941646
O           2.74854904688596    1.12883267661940    0.80474915738582
H           1.72212074791213    1.99837706788848    1.82530186913923
H           2.39298497612597    0.22514245083561    0.89307277074141
H           2.55083823775152    1.38108563116369   -0.10116984065574
N          -1.90960749450385   -1.61258130632484   -2.95387670300524
H          -1.56618695133457   -1.78763576673105   -3.88970435923527
H          -2.77504389460496   -2.12532960194412   -2.84090853321192
H          -1.22969484525688   -1.99748254430627   -2.29592685393126
