    23
        -45.36293446  Gyration_radius:  2.48321972876 Dipole_moment: 1.876
 S          -0.76183982222357   -0.67487834021572   -0.10277419974053
O          -2.04448836661813   -0.88625374817145    0.48428943201296
O          -0.62894493759977    0.79386448278684   -0.56735846589658
O           0.31589906472385   -0.79683269703035    0.99897622970189
O          -0.40664934291105   -1.50961020507737   -1.21785143034448
O           3.06464348677252    0.00847799700770   -1.79301978387960
H           3.74529724384208   -0.17670712847264   -2.44202618377022
O          -0.46807230746700    1.90243743875191    1.68810270426625
H          -0.58581186972424    1.35607744348666    0.29306863531438
H          -1.34662261079205    1.64339506588550    2.10359899152564
H           0.19090837289663    1.31890505930029    2.07587617821586
O           2.12298000767403   -1.95863093370063   -0.29464413222920
H           2.59911872381829   -1.23269689751815   -0.77257837147613
H           1.13347683225889   -1.26937706037328    0.57954013013406
H           1.46348329500086   -2.29298624241449   -0.91725947781295
O           0.69198688134032    0.19581649678633   -2.99322463371523
H           2.23082078470570    0.15831654662065   -2.29938037702280
H           0.23787446630070   -0.51295197563338   -2.50093821318194
H           0.25804378880642    1.00535855809766   -2.71078101201796
N          -2.73707435504656    0.90024544014060    2.58199461195096
H          -2.67845944438291    0.15090383186825    1.89031005066592
H          -3.59945284985693    1.40412265144847    2.41838101589268
H          -2.79711703153202    0.47300423643021    3.49769830141976
