    23
        -45.36777557  Gyration_radius:  2.4808540073 Dipole_moment: 4.063
 S          -0.43120382017650   -0.95756328158337    0.77041111395311
O           0.81214911799709   -1.28922185382331    1.48352963019418
O          -0.14951846788567   -0.88469352791222   -0.67306468842169
O          -1.43224086553503   -2.13573277529611    0.99566584152329
O          -1.04487680890002    0.25127942784484    1.25081704934995
O          -0.85367456054548    3.05634556457005   -1.49138777525627
H          -1.62455361349014    3.59324538237023   -1.29980810000190
O           0.42124787520089    2.40389240270363    0.74703495657494
H          -0.21864591497890    1.74384399245524    1.09601972245705
H           1.42352121221657    1.44531391765160    0.27947363654328
H          -0.00845177209019    2.76271292236410   -0.06835364915602
O           0.55651622327342   -3.88045522631841    1.20543219390205
H           0.90168826109013   -2.97304965869362    1.34734552210625
H           0.57257811746634   -4.31310276916184    2.06202875026212
H          -0.89475309133450   -2.95439870473858    0.94417837937257
O          -1.79696482232389    0.62279549892626   -2.08116780487222
H          -1.20434770681853    2.17353378524698   -1.74878080458993
H          -1.75162243941133    0.22859204514530   -2.95401237262690
H          -1.27143333369850    0.03732549853724   -1.49301350409306
N           1.94144768976414    0.51556110993145   -0.04000439956985
H           1.26657074762007    0.02891599992355   -0.67728655473030
H           1.92048114772359   -0.12693132667172    0.77879627709649
H           2.86608680483269    0.65179157653038   -0.43385344001703
