    23
        -45.36777556  Gyration_radius:  2.48086097088 Dipole_moment: 4.063
 S          -0.69669282267443    0.48089166733061    0.98983125131485
O           0.39170926919789    1.03730530970112    0.16879404656482
O          -0.72537961754061    1.27579222447061    2.33453179422842
O          -1.97843017643409    0.71705064480516    0.30732526574651
O          -0.47320737043697   -0.90715618960367    1.29327847181715
O           2.48680568101494   -2.31312222365216   -0.87162240941782
H           2.84346763546528   -3.00916086446260   -0.31706768580553
O           2.76750466284625   -0.05406166802011    0.53469620992301
H           2.62891942272366   -1.47789981218352   -0.37084854879780
H           3.36613556530376    0.65511124224589    0.29380356408842
H           1.86521079327778    0.33318785137158    0.50663021889010
O          -2.33029764443309    3.11641040855460    1.29554438501610
H          -2.36688932780835    2.30381499287293    0.74689062518542
H          -3.17029189441275    3.16951602969773    1.75684403547285
H          -1.16355064945825    2.12885308515423    2.12946819089030
O          -0.16953066805666   -2.38717002055123   -0.88717116250064
H          -0.33347391239039   -2.04415227979018    0.01968817130715
H          -0.52204291442020   -1.16089458821555   -1.60416078704552
H           0.81445257306856   -2.46319761997824   -0.95225526428337
N          -0.75773090883367   -0.10505629070227   -1.85786037174012
H          -1.60573802203895    0.14541617774422   -1.30850364289020
H          -0.83571720989805    0.09197392309320   -2.84968721390241
H          -0.03523245406329    0.46654800011879   -1.35814914406114
