    23
        -45.36777557  Gyration_radius:  2.48088142863 Dipole_moment: 4.062
 S           1.23643171879982   -0.34044831546715   -0.22590640917771
O           2.56331570250124   -0.96716836067772    0.31032182924015
O           1.59771964429577    0.66793890593403   -1.23438735280985
O           0.42383489924279   -1.39946547498812   -0.76151884894053
O           0.57407247383914    0.33056876698386    0.90511180572282
O          -3.20069195965828   -1.22530309302614    0.74115295496569
H          -3.48576342759133   -2.14033251004505    0.71561837689187
O          -1.97418561768203   -0.55571675356455   -1.51924564897336
H          -1.13264284057028   -1.04582157292400   -1.38294743818750
H          -2.53702629106927   -0.80395776873846   -0.74477794542669
H          -1.45019027137429    0.77755165476358   -1.21928904191134
O           3.89241921535830    1.28639508820246   -0.13467921131210
H           3.19713049626142   -0.22263801987367    0.38606438222316
H           4.60825838968290    1.16884369127913   -0.76315024909636
H           3.06244340405678    1.28803541900766   -0.65789228645964
O          -1.05076037928505   -1.18243172133844    2.33347590393960
H          -0.38464383551357   -0.71072946915818    1.78691054429142
H          -1.03129631295101   -0.76081257466713    3.19439229875728
H          -2.43572673141416   -1.20436458649350    1.36002309072787
N          -0.81402633374417    1.61860698937023   -0.86914649627998
H          -1.24452925030403    2.53529492592622   -0.92363787293588
H           0.08480250402597    1.54143810239687   -1.38859819509546
H          -0.49894520690256    1.34451666709754    0.09210579984366
