    23
        -45.36777557  Gyration_radius:  2.48086201955 Dipole_moment: 4.063
 S           0.79429931206685    1.03096773529352   -0.04541227619518
O          -0.11187403547738    0.51082816517532    0.99211444996045
O           0.22019902845005    0.90818150533299   -1.35844763484400
O           1.02287099242585    2.54857379510810    0.24717160413835
O           2.09549454588340    0.35500095926935    0.07438503224832
O          -2.99639009868825   -1.34199459131660   -1.23097319073030
H          -3.52189693748152   -1.00312933740509   -1.95776191586399
O          -0.44872391577121   -1.59090131528248   -1.94477032999013
H          -1.41886751294038   -1.59775640373679   -1.75251525931578
H          -0.20443425335359   -0.63848570296811   -1.95959683345187
H           0.20989809584268   -1.92037145667271   -0.67993283230490
O          -2.68931315051949    0.71090687917592    0.45753297725192
H          -2.91987846386643   -0.59805755276480   -0.59120513733279
H          -3.08463231447389    0.74939461444532    1.33019337385140
H          -1.71765525924094    0.73159502170862    0.60028659966564
O           3.05094448998428    2.00435689616685    1.87007795232417
H           2.87858156595687    1.23051982319937    1.29205520829494
H           3.87476832991143    2.39143145082317    1.56558218109587
H           1.66667922165072    2.58253552983117    0.98617548033583
N           0.71027714038843   -1.85399103072460    0.30995465578081
H           0.15778198877917   -1.14687249986537    0.85140227220800
H           1.59251141982405   -1.32308596927892    0.15670133542405
H           0.83935981064972   -2.73964651551419    0.78698230744904
