    23
        -45.36777560  Gyration_radius:  2.48094530587 Dipole_moment: 4.065
 S           0.21786671557064   -0.13811553908544    1.27677935520770
O           1.24431718901345   -0.19873900887280    2.45310729631399
O          -0.92104470458945   -0.99694054695877    1.63696616078708
O          -0.15917657273389    1.23587334524633    1.08005172347720
O           0.87730920512585   -0.69427511378069    0.08349663415122
O           0.22380000659058    2.22487827107754   -2.70112196273414
H           0.40684002988129    3.16493335729947   -2.65625427821621
O          -1.73358661979646    1.56487986946739   -1.02936046765989
H          -1.09422114713428    1.86422581617431   -1.72204849736533
H          -1.73020339484049    0.10258760370427   -1.08999310861306
H          -1.24064765618683    1.64833588993996   -0.18259136080613
O           0.49153398761117   -2.66580177592293    3.07816614306993
H           0.13710945600325   -2.72378015861390    3.96824754532573
H          -0.20321772462412   -2.24123367900739    2.53078638760863
H           1.25015317323442   -1.13257763599502    2.75249293578240
O           2.22684140179399    1.03529817392780   -1.38500041717693
H           0.98267820345060    1.78656165845363   -2.25322424337178
H           1.75495518728662    0.45253785603428   -0.75045316555174
H           2.89019891024760    0.48488069376075   -1.80487932456259
N          -1.50165060955950   -0.97075092412441   -0.91558178921910
H          -1.72106055830910   -1.15769381805385    0.08469445717732
H          -0.45552287047676   -1.02976216880389   -0.89212390294159
H          -1.94327159757148   -1.61532216585373   -1.56215610069199
