    23
        -45.36777552  Gyration_radius:  2.48082660435 Dipole_moment: 4.062
 S          -0.33243632981115    0.31322619728975    1.21932902829598
O          -1.23543981115143   -0.80517922543070    1.53254691671074
O           1.05571150783811   -0.06050578742769    1.26495482388954
O          -0.69973912230307    0.87112131251728   -0.09293855354842
O          -0.57321226508496    1.42698310985115    2.28824271829630
O           2.60998251371746    0.04451803361708   -2.34082850677384
H           3.53249894151034    0.24184803698077   -2.16997468255918
O           1.23479640269494    2.12761212516656   -1.37680533151236
H           0.56139935536233    1.69757670934479   -0.80534865643835
H           2.10894371223044    0.83000894934734   -2.02368469371563
H           0.75547265650002    2.75138508197636   -1.92493993509997
O          -3.10609268709315    0.69346183311091    2.58726327713454
H          -3.29908061379780    0.40837866879669    3.48320616375748
H          -1.54188777968135    1.44404872366917    2.44048710275832
H          -2.60230536850533   -0.03619913474553    2.16726383366351
O           1.70592027933830   -1.78714816115288   -0.64081199095154
H           1.65816771764438   -1.22945055530626    0.16770652022531
H           0.26999515037572   -1.80839436121525   -0.92312265347078
H           2.10627765804444   -1.19885600618548   -1.32772465854211
N          -0.81770896649253   -1.58139244815852   -0.93264471299351
H          -1.15506722937654   -1.72524396096382    0.04160298678882
H          -1.35525175317079   -2.08035278680428   -1.63316196593625
H          -0.88094395878773   -0.53744634427849   -1.00061703997623
