    23
        -45.36777559  Gyration_radius:  2.48081602811 Dipole_moment: 4.062
 S           0.62291253375375   -1.08149840141737   -0.37101927590527
O          -0.41622040014839   -0.25653205005188   -1.00958553669263
O           0.55192166734924   -2.50542338930860   -1.00992458905812
O           1.94367174891882   -0.51734231614989   -0.69010731932870
O           0.39875694359803   -1.21231491821068    1.04365660545323
O          -2.39234777303434    1.28880525091990    2.21613249386277
H          -2.77441667191946    0.84000989803734    2.97233075110216
O           0.26010049179376    1.13544165639658    2.27091237731704
H           0.35923400145946    0.18696437104074    2.03115781868425
H           0.64241027822887    1.68552602393030    0.96961940601119
H          -0.71631565443897    1.27433231729911    2.34530339453456
O          -2.79566623759340   -0.33894813952799    0.13092639168237
H          -1.89886303795788   -0.41451240627743   -0.26269564362106
H          -2.57852166636216    0.70872226807151    1.44323419219513
H          -3.38693732878286   -0.13959386870425   -0.59705936473609
O           2.19769909382116   -1.78933052377253   -2.96475680916923
H           2.28131571580603   -1.15687144265639   -2.21932384837387
H           3.00450374143300   -2.30918533160839   -2.97037773914585
H           0.99136121481713   -2.42695645614167   -1.88316352968780
N           0.88001390554297    1.80328631954853   -0.10943400967856
H           1.68599248821449    1.17307394208327   -0.30181975621241
H           1.02132402842092    2.75933713398586   -0.41706755039467
H           0.11807090708131    1.29301005251433   -0.61693845883812
