    23
        -45.36777559  Gyration_radius:  2.48077800733 Dipole_moment: 4.063
 S          -0.80860342633333    0.34731856757268    0.95961849395943
O           0.32647257234465    1.02628324288263    0.31252026927435
O          -0.55230214211399   -1.05658237770675    1.13874241470484
O          -1.00064877482196    0.99190376109564    2.36976421758701
O          -2.02915513420110    0.61023633101481    0.18142657448286
O           2.66101733060532   -2.11677786180838   -0.85404656815724
H           2.99438051604331   -2.85541383680216   -0.34169047608185
O          -2.58261837709245    2.87522068350708    1.37305653060066
H          -2.52984704588221    2.12566757599081    0.74217512954596
H          -3.46396421620674    2.84834411870730    1.75212657082044
H          -1.45615860354802    1.84587948159626    2.21157808411383
O           2.70359937435742   -0.01344644166930    0.79928592463728
H           1.79142432801060    0.34264909511028    0.72131504221177
H           2.71664998145757   -1.33564056331693   -0.25793205183578
H           3.28962858692697    0.73801639829270    0.69359542337857
O           0.02454084682150   -2.28283310982392   -1.14152825609118
H          -0.31382194941309   -1.00021669907588   -1.75950721556991
H           1.01272716899383   -2.31637942637344   -1.11587869856367
H          -0.24047632483582   -2.04493455253556   -0.22493499814878
N          -0.57218268541557    0.06781177166730   -1.92525008165817
H          -1.47897216419441    0.22806596887159   -1.43988452868992
H          -0.56462720576915    0.36696593172014   -2.89428348095156
H           0.07293732426550    0.60786196108045   -1.30026832956777
