    23
        -45.36777557  Gyration_radius:  2.4808654007 Dipole_moment: 4.063
 S          -0.96554343920441    0.80457383604714   -0.34138779387088
O          -1.97399850164697    1.92395661697692    0.07204093178034
O           0.25645916719182    0.99091756477310    0.45872068203122
O          -1.57826769919147   -0.47041507863290   -0.08124805476863
O          -0.64072973254676    1.00270364505122   -1.76254557651201
O           0.84284232033699   -2.73985112284024    2.01939804292721
H           0.23784330315313   -3.30209814939971    2.50628759727943
O          -0.95450810068101    3.60206088299220   -1.71337968621711
H          -0.69724302284804    2.68378766609367   -1.94410917530760
H          -1.60142982300372    3.87445736433989   -2.36799187740755
H          -1.66662891992506    2.73837010908395   -0.37963502977376
O           0.28773799742254   -0.23956858139604    2.79415308803966
H           0.16670726034115    0.23096670505438    1.94041666080667
H           0.66605875421954   -1.82505105263452    2.33640315973865
H           0.88320792725648    0.30441671937430    3.31262130144076
O           0.07546342267501   -2.49900318399704   -0.51342337482089
H           0.39471057569436   -2.70596961863559    0.39951001226912
H          -0.70153121254881   -1.91160742082353   -0.37844320057954
H           0.98267371610952   -1.47273572679618   -1.02912280485251
N           1.45086464687525   -0.50117179462202   -1.29653826964967
H           0.77792925934264   -0.01535685853869   -1.92490252613836
H           2.39155300204430   -0.56531933076737   -1.67015596176540
H           1.36582910893350    0.09193680929433   -0.43666813464818
