    23
        -45.36777557  Gyration_radius:  2.48087700277 Dipole_moment: 4.062
 S          -0.55116865505512   -0.32300643862177   -1.13456407052257
O           0.56614477462864   -0.04210770379639   -2.04950045242779
O          -1.58517195207572   -1.20153549091598   -1.90912679492527
O          -0.05235633755432   -1.12031851001068   -0.00156084582628
O          -1.22015480007733    0.86929855857109   -0.68782101032985
O          -0.59016236627114    1.42552527559359    3.14876004358665
H          -1.37613012780367    1.89874908161166    3.42716876111548
O           0.32372462773078    2.38632791545328    0.84572569621221
H           0.02624343094515    2.13481321285773    1.75481767932442
H           1.37728845698533    1.43319506903911    0.49380347336102
H          -0.36746962221897    2.02302116926703    0.24803693936964
O          -1.45533617073578   -0.93271454812593    2.22686200459548
H          -0.90586794820473    0.54282915612170    2.84913586147747
H          -1.02953537134047   -0.99028581465966    1.34350302277146
H          -1.28211806774957   -1.77147378018415    2.65789436106159
O           0.33243230211882   -2.27558753659472   -3.39645156295431
H          -1.05342353192885   -1.83125882556740   -2.44061835395851
H           0.21363100978982   -2.09290581930181   -4.33118800123470
H           0.66024352278752   -1.44418394749695   -2.99157523918287
N           1.92980903824812    0.55094322777875    0.10527401413989
H           2.90477685586582    0.49881766988258    0.37974164348263
H           1.77886753320584    0.54152836815025   -0.92466127517175
H           1.35573338870785   -0.27967029905255    0.38634409603720
