    23
        -45.36777557  Gyration_radius:  2.48081199392 Dipole_moment: 4.062
 S          -0.18702677495564   -0.79790954432352   -1.01185346070520
O          -0.96755931637847   -1.11936707328701   -2.32649959733142
O          -1.11243522562941   -0.09566867333848   -0.10706839092464
O           0.19871650639045   -2.07913792522470   -0.40018735490684
O           0.94493619435024    0.02215756277829   -1.35070477462763
O           1.04696349812721    3.21282829106489    0.93606230530419
H           1.48481618013377    3.85871284853289    0.37898612209419
O          -1.18730389067497    2.53021000218429   -0.36856235923611
H          -2.07086905136099    2.74845466913979   -0.06690581013315
H           0.20534793195534    2.99413535250760    0.47518187249300
H          -1.14098198441369    1.54908249141718   -0.38078016138618
O           2.27035946601131    0.85836296956961    0.78959324169754
H           1.91419206780983    1.77303818016421    0.91107765114478
H           1.36420826617335   -0.02293500798491    1.52745645523871
H           1.98037869019835    0.59595276566685   -0.11261272059053
O          -1.86137240176137   -3.40727619896818   -1.32167700759013
H          -1.08337292716505   -3.10568324774841   -0.80556071160151
H          -1.53111874879858   -1.89443876003433   -2.11801859743280
H          -1.57018611945935   -4.16683284664447   -1.83107420155442
N           0.53317685730600   -0.70673443496004    1.80401079290313
H           0.44853057837239   -0.90188935415872    2.79566102552866
H           0.64485511518354   -1.55661635210348    1.21332873927465
H          -0.32425490141359   -0.28844571424895    1.37014692234162
