    23
        -45.36777560  Gyration_radius:  2.48072867887 Dipole_moment: 4.064
 S          -0.74004539409483    0.87425730168102    0.61969072706580
O          -1.29813925816632    1.59753032674975   -0.53353558917519
O          -0.98106686221222    1.75312477384387    1.88873596461285
O          -1.36501506232673   -0.40344578164326    0.83308190863268
O           0.71559853110010    0.74166546749681    0.44198820269684
O           1.17630564123235   -3.30148105078291    0.08144400060147
H           0.87000568252356   -4.00630666826450    0.65469345662971
O           1.83889117377702   -1.28361339230721    1.70873926231913
H           1.45890337992475   -2.57582607068923    0.68327173103693
H           2.73770773271028   -0.97788125031425    1.84276352608704
H           1.35010186676167   -0.52387538594604    1.32294707889768
O          -0.86421921759525    3.98323177257237    0.45463608786229
H          -0.81775693318281    2.67788708928208    1.60613765525674
H          -1.03452413798608    3.22135235506626   -0.13963549144581
H          -1.68186679787535    4.48436586079171    0.49333950538739
O          -0.86960289816314   -2.11616479844004   -1.13098899976758
H          -1.23384146158419   -1.62375717674063   -0.36169627613925
H          -0.23601653020697   -0.97182204610695   -1.78697107324589
H          -0.12933383830341   -2.65455371697800   -0.75618055910455
N           0.19981222216190    0.02819827538041   -1.99909733850855
H           0.67447233693392    0.11023850385502   -2.89163961963619
H           0.79865388052866    0.25007319458152   -1.16808081936143
H          -0.56902404596608    0.71680240691738   -1.86364335070607
