    23
        -45.36777557  Gyration_radius:  2.48082162315 Dipole_moment: 4.062
 S           0.17807947649838    1.22268319593805   -0.41048516956412
O           0.47320391839818    1.22440756393953    0.99719127725884
O           1.10459059256805    2.27183480454358   -1.10449227343558
O           0.45762657697536   -0.08806879515999   -1.02040275257456
O          -1.21412653566105    1.59821433053735   -0.70251869649726
O           1.12486910132058   -2.43765258643478    2.25599760288338
H           1.72383466571602   -2.30451754922289    2.99271722510783
O           2.39859112287456   -1.47727051322791    0.10760650555782
H           1.61116281473948   -2.12267747054996    1.46046100625891
H           2.71639022231808   -2.02262805443455   -0.61413231830719
H           1.73454392925053   -0.86948116282517   -0.28549796362535
O          -0.68060752317322    2.68574870624439   -3.02401911884801
H           0.68886808475349    2.46048335194095   -1.97246094784500
H          -1.12017950061390    2.26530423915282   -2.25418578640087
H          -0.98668090074387    3.59514053447687   -3.04706261852325
O          -0.84996326695174   -0.66029220378039    2.31415350013582
H          -1.52723305257795   -0.88742089879796    1.03659989449624
H          -0.17194060866294   -1.37630028670685    2.39041791557338
H          -0.34213442647541    0.13518290881186    2.03801035571581
N          -1.81547837167374   -0.86107921759411   -0.03614978276627
H          -0.91575701579970   -0.95268651259611   -0.56584107884518
H          -2.05703955195973    0.12875848067903   -0.24983087562249
H          -2.53061977111870   -1.52768287493511   -0.30607590013257
