    23
        -45.36777557  Gyration_radius:  2.48086727149 Dipole_moment: 4.063
 S           0.11269848549995    1.02775725055683    0.79211555462936
O           0.80816438848774    1.68698178144503    2.02607288839066
O           1.10217480157487    0.15394323488726    0.13969226882515
O          -1.02305684899035    0.28107903629485    1.26246353733405
O          -0.25808582962072    2.10648822247672   -0.13702274417183
O          -0.93377448273924   -3.37549752691319   -0.16836551333590
H          -1.39237505992638   -3.87888752199160    0.50653938096498
O          -2.20449012921203   -1.09663315889077   -0.67225181937675
H          -1.82601434737608   -2.00150315671550   -0.54499520263969
H          -1.97306063912482   -0.61167277726417    0.15127250304442
H          -1.27144168245001   -0.39588965556521   -1.55569929828142
O           1.72061978295620    3.68427553465623    0.53565031241075
H           1.36967569718490    2.40422335097600    1.66268052998980
H           0.97987629508110    3.24080778124249    0.06951722750509
H           1.38678144535248    4.53637270150030    0.82492754841611
O           1.20691017917522   -2.32385822263655    1.04459945274482
H          -0.12492220799957   -3.02409506307313    0.26849756096535
H           2.11043667076471   -2.58153514746392    0.85340762719458
H           1.14287035069089   -1.37166876530905    0.81199214845919
N          -0.43725520218284    0.22452545358787   -1.94806381145506
H          -0.29705308936692    0.17212946313585   -2.95117098930742
H           0.39984805415160   -0.04703490451305   -1.37891366001929
H          -0.59852663192720    1.18969207957822   -1.59294551228655
