    23
        -45.36777557  Gyration_radius:  2.48086852296 Dipole_moment: 4.063
 S          -1.20687030280701    0.31740156497496    0.37301470742456
O          -0.02270273030095    1.12107686217431    0.02645104705887
O          -0.84852186245433   -0.85366022959114    1.12727030952789
O          -2.13457890101996    1.20565667142025    1.26254040041663
O          -1.94544553994411   -0.00071113102153   -0.85895492983314
O           3.04505781507226   -1.36622851236884    1.07482374931439
H           3.21090444929589   -1.81828642611753    1.90389059809461
O           1.98091698229699    0.99675541679457    1.74090685840608
H           2.69292005126641   -0.48126376488913    1.32264932642701
H           2.42288432739838    1.83781477213628    1.61208338227762
H           1.16791764888846    1.03206970605614    1.19076376066935
O          -3.33734364855431    2.21729268548638   -0.87593066775348
H          -2.58970133512709    1.81624638849334    0.64461808470357
H          -2.87937792510147    1.38515087007498   -1.12179440904359
H          -4.27722624415872    2.02338052914253   -0.89075478738832
O           0.91113938996470   -2.37989239193249   -0.14203370694744
H           1.76417829958680   -2.10885269178568    0.27878569314766
H           0.21485017303513   -2.01110793734862    0.44628850965149
H           0.70595047788102   -1.45430223720447   -1.25704214080627
N           0.39207392055707   -0.58950697365241   -1.88023339216397
H          -0.64891553179136   -0.59230332807679   -1.88119917290822
H           0.80533567514130   -0.55367162870936   -2.80573644848312
H           0.57655482087510    0.25694179594418   -1.29040676179289
