    23
        -45.36777555  Gyration_radius:  2.48075714411 Dipole_moment: 4.063
 S          -1.01825338046372   -0.49217013598968    0.64565676039757
O          -0.42982352904708   -1.75201638640890    1.12634387118066
O          -1.36820583530630   -0.53563609624083   -0.74871873605662
O          -2.32187713168412   -0.23698761527576    1.46799901340553
O          -0.08768279813203    0.61148108741414    0.93583144846398
O           0.95720217360931    1.86694025740821   -2.80900697854726
H           0.40108180986437    2.11895423041757   -3.54823672135571
O          -0.31547441177212    2.73197030391618   -0.61999794986994
H           0.50877348514719    2.22240912355538   -2.00827575566049
H          -0.34067154929252    1.93067360328997   -0.05237703702173
H           0.00513212935697    3.44132457476365   -0.06022823124660
O          -1.32841693343178   -1.51032280013048    3.57395705309174
H          -0.82354708520577   -1.76273832086161    2.77143501601415
H          -2.11239696493417   -0.50510486229973    2.38776945420726
H          -1.85230136568689   -2.27705861039603    3.81647978247109
O           0.75730252916232   -0.73796366196510   -2.32301430907689
H           1.50101814144478   -0.89038266426956   -1.07174551528863
H          -0.14252657667457   -0.74704993668329   -1.92666520702059
H           0.89699368717771    0.19938212150000   -2.60614866139314
N           1.78468207437797   -0.92342003601482    0.00213845496992
H           1.18168536055691   -1.64929874469235    0.44160935184457
H           1.37200883188550   -0.05695411881062    0.42326095906263
H           2.77529734904793   -1.04603130222768    0.18193393742958
