    23
        -45.36777559  Gyration_radius:  2.48086375685 Dipole_moment: 4.063
 S          -0.62208878585801   -1.14112019173029   -0.08299050797071
O          -0.45436177595649   -0.02211386041979   -1.02528799967033
O           0.52846443370901   -2.04913717563518   -0.21018140592458
O          -0.81829776376622   -0.67370945587222    1.26301357490691
O          -1.89753910564688   -1.93313071235996   -0.51523140156623
O          -0.05981509332249    3.17268720717992    1.49203175565658
H          -0.62429322200146    3.45731560228236    2.21283388209884
O          -1.71038224134402    2.20856959532003   -0.38043088489380
H          -1.32802309447852    1.32453054891661   -0.57329492338534
H          -0.67034856585580    2.85729940187600    0.78748542300211
H          -1.85438884693336    2.62477526601613   -1.23210422980160
O           1.15806502048932    0.88863279086824    2.09364162841808
H           1.79819827506434    0.52139185171294    0.82967362770212
H           0.78261108593814    1.79267541537324    1.95233789585315
H           0.38695281941774    0.28354962279996    2.01477808959988
O          -0.48597724528662   -3.43586477622481   -2.18631222855035
H          -1.62528762377736   -2.47482632246352   -1.28608759973380
H           0.11684570480963   -3.01569433155694   -1.53616845810933
H          -0.52310900451388   -4.36742036171119   -1.95819395051013
N           1.99719213552038    0.11791610508275   -0.18632053120473
H           1.86123996272631   -0.91224325859830   -0.12369261365946
H           2.88504925533933    0.39288162602015   -0.59213653085095
H           1.15929370572572    0.38303540312316   -0.75736260140645
