    23
        -45.36777555  Gyration_radius:  2.48079110495 Dipole_moment: 4.063
 S           0.42131040672888   -0.41056607365951    1.16191107597997
O           0.12778222548877   -1.59464663606177    0.40004733658545
O          -0.42165524242650    0.72302637633074    0.74633391203174
O           0.10589084127783   -0.70588677778263    2.66327526295672
O           1.83476400861235   -0.01164851585107    1.07554113881816
O          -2.18238631539589   -0.71061715303238   -2.65052036180949
H          -2.66871780787699   -1.52475221321875   -2.79158847790256
O          -2.81233916336153    0.08700290036271   -0.17531528292364
H          -2.44743241247230   -0.39658012187759   -1.75623998819029
H          -1.93267616761705    0.23610803746587    0.23555627509983
H          -3.32987035583637    0.87050015112807    0.01862771408518
O           1.92276211430949    1.05430576074595    3.46563798104814
H           2.09812306812524    0.80590464113483    2.53280358078187
H           0.58195477653346   -0.01788895700843    3.17494778308830
H           2.61716156176484    0.64804204539701    3.98900940870435
O           0.39008752812717   -1.21244483775360   -2.21193175240017
H           0.31746405882349   -1.57907766489624   -1.30244190935227
H          -0.54479559153857   -1.05664460546235   -2.49474089215084
H           0.91394601594339    0.09977900414435   -1.83008581748479
N           1.20658541285422    1.00404447581537   -1.25440490276025
H           0.38060051501606    1.22421164651880   -0.64793603590995
H           1.53485461592063    1.78320092108619   -1.81460372579169
H           1.88658592699767    0.68462759647604   -0.53388231250335
