    23
        -45.36777557  Gyration_radius:  2.48078029559 Dipole_moment: 4.063
 S           1.02758224743984    0.62738853925527   -0.49678156981921
O           1.55018000561126   -0.41335683002274   -1.39583992533783
O          -0.42353066804522    0.75835713655189   -0.70955759982288
O           1.33883003433650    0.37904121102004    0.88527139865842
O           1.68788102461246    1.98176756127676   -0.90973905701555
O          -1.93555751120996   -0.45160535771852    2.88841849502599
H          -1.72505883397086   -0.14989411724215    3.77378675023080
O          -1.79231952185219    1.72043576171206    1.33245424388808
H          -1.92358403648494    0.35519912209182    2.32491572225286
H          -1.19976573421813    1.42856033175719    0.60542946172680
H          -2.55071510264133    2.12514246600528    0.90775639637616
O           1.89675498974505    1.19239632511775   -3.43499596835005
H           1.77020330318532    0.40950015842619   -2.85735473171640
H           1.71661734196961    1.97518238264622   -1.88997628940545
H           2.80847864224511    1.16394554219420   -3.73351095252275
O           0.11205169390989   -1.77461774422215    1.83085039776339
H           0.71016217719377   -1.01277758167607    1.66131710733406
H          -0.66678722961116   -1.38271529940430    2.29785559373860
H          -0.31430102089059   -1.97399457920030    0.44503238250118
N          -0.51439728806681   -1.83405782617106   -0.63900797682832
H           0.41396858622691   -1.71469417721591   -1.09462216935189
H          -0.89246459943095   -0.86051322604877   -0.72638867393070
H          -1.09422854005658   -2.54868977913250   -1.06531304539456
