    23
        -45.36514202  Gyration_radius:  2.28511234974 Dipole_moment: 7.088
 S           0.10042018581322    1.92682025045072   -0.27552652143926
O          -0.01965583823260    2.17690278409310    1.26748056543804
O          -0.95921319756791    0.96788893660675   -0.61993793974177
O           0.00701309011091    3.16208528960005   -0.97137220864143
O           1.41377997146005    1.23993762689976   -0.46695936905868
O          -0.52945621910350   -1.93424046166987    1.35573222985401
H          -0.78630728303887   -2.65367318151332    1.93392733071435
O          -2.11238387466555    0.15684020567805    1.58674403543079
H          -1.19569598445759   -1.20955029573656    1.49831266319406
H          -1.89661830576345    0.82668984900247    2.23992435418033
H          -1.81890437804706    0.53509805663255    0.72511668449732
O           1.34783714042557    0.03602661888296    1.88581354455864
H           0.46759452647534    1.42093307195149    1.67919015501140
H           0.80152578446987   -0.75543416954138    1.73837278153447
H           1.69749376436183    0.29774123528709    1.01658668799601
O          -0.83791973764137   -1.56306401184981   -1.34344315762025
H          -1.14714098293240   -0.64898596775799   -1.15989725572366
H           0.42887320059633   -1.04413677290541   -2.00967957892038
H          -0.67949069826019   -1.93022200681137   -0.45439782287347
N           1.25135986498625   -0.42809793216294   -2.35910790274916
H           0.98978832596259    0.04049791922540   -3.22068618168563
H           2.10742325641238   -0.95816456164962   -2.48491029219554
H           1.36967738863601    0.33810750728744   -1.56128276175959
