    23
        -45.36262138  Gyration_radius:  2.44660738721 Dipole_moment: 2.540
 S          -0.63065635108004   -0.14678218656186    0.84432134445188
O          -1.93845888473672    0.34451540531625    0.51247404013285
O          -0.56495868719050   -0.38115172273312    2.35317950617899
O          -0.21754481916294   -1.33758623226208    0.14782534090659
O           0.41542527594480    0.95495837770491    0.57297104644477
O          -0.93121136210433    1.54386225168137   -2.87925156835453
H          -1.46295017271936    1.81945348614059   -3.62769422479455
O           1.62556840573555   -1.55091498368734    2.87384881406778
H           1.42244904779121   -2.48924672867486    2.86588354346238
H           2.13489883869888   -1.36405518518650    2.02792706174255
H           0.32247053629325   -0.82161304910645    2.62025232484422
O          -1.88492694501126   -0.77711255360684   -1.94746027999715
H          -1.24287472101508    0.64137199792715   -2.63590350818010
H          -1.17978996113324   -1.30372845024514   -1.54751149199299
H          -2.33638719475249   -0.39950668079947   -1.17841307460776
O          -1.03861361005045    2.70911421193840   -0.48636577638726
H          -1.81871490710291    2.25098296354767   -0.14464254645053
H          -0.06969434355541    1.77281890018389    0.17617990404527
H          -0.95377445706630    2.42799517433467   -1.42933255006288
N           2.60217683296148   -1.05280977992937    0.48104574470703
H           2.75189731369152   -0.05602029638478    0.38506598661296
H           1.68795626263428   -1.25114594805303    0.07844058014583
H           3.30771390292233   -1.53339898158573   -0.06284022690327
