    23
        -45.36262163  Gyration_radius:  2.44705566856 Dipole_moment: 2.537
 S          -0.28821244426282   -0.96178017988486   -0.34557453788203
O          -0.19187870902636    0.06970391871376   -1.34585870760806
O           0.30685086945854   -2.26230668942951   -0.88445829704530
O           0.62584632955576   -0.57198018907803    0.83507966504973
O          -1.61123996411255   -1.23057138010045    0.14363635891911
O          -1.85474297248237    1.96324885856047    2.06587992468059
H          -2.61204377625890    2.39375680197001    2.46594191317091
O           2.49149717155489   -1.70729313337370   -2.04887000158968
H           1.21353185604734   -2.09572431922359   -1.33551746529124
H           2.26099076959232   -1.57035811364230   -2.97070433861828
H           2.67291254745298   -0.79663828223976   -1.66418890337289
O          -2.48225616103939    1.26151338322870   -0.43968218920530
H          -1.69830018981940    1.26310298428150   -1.00509529028809
H          -2.61172841908220    0.32033350804112   -0.25124400840688
H          -2.08666698715487    1.81980445091104    1.11900920870660
O          -1.05362111187634   -0.49596431815419    2.70211112601552
H          -1.32320316109982    0.45115771070000    2.62691519793346
H          -1.67348959353033   -0.99036728505546    2.14836999450494
H           0.05675875653303   -0.55578512594356    1.69430765777659
N           2.56855127915835    0.70925257410375   -1.00981997032504
H           1.56496449129973    0.79435533999458   -1.16033923394756
H           3.01836198766031    1.55752431139675   -1.33030645477238
H           2.70711743154822    0.63501515428563   -0.00959163848122
