    23
        -45.36262149  Gyration_radius:  2.44658239659 Dipole_moment: 2.541
 S           0.16206064479634    0.96144920081698   -0.42362966706199
O          -1.13986674663400    0.73170494805629    0.14732185452849
O           1.09194832523612    1.66477885708773    0.41461551357790
O           0.76025296225619   -0.40489895347806   -0.81957426144505
O           0.02193720440635    1.72082380438990   -1.74252548243994
O           1.58724443519282   -1.20827490300356    2.75008348974517
H           1.99453750865582   -1.24537728936026    3.61707861972077
O          -1.86301768601056    0.65810555650983   -3.06726944157159
H          -2.64967754173373    1.15833514847489   -2.83776598825724
H          -0.70716800686694    1.30533836339704   -2.33307159654370
H          -1.94012421708292   -0.22442484113660   -2.59274238692382
O           2.86179364480187   -0.39494308071043    0.55723440403326
H           2.75963919355399    0.55840193609729    0.68372022639364
H           2.50754541267920   -0.81421488516553    1.37825783412983
H           1.67331469225473   -0.50693602073863   -0.35244363086936
O          -0.12550178734025    0.84750059705066    2.68607112321170
H          -0.85524033086045    0.66948875674461    2.07769868212306
H           0.89069792206368   -0.51319662325434    2.80138975398149
H           0.44519171908140    1.43836294481768    2.17303052785861
N          -1.93100706763397   -1.45739467308571   -1.50311703815405
H          -2.67787602371929   -2.10854338297108   -1.29622158994108
H          -1.79218061587048   -0.85203029866358   -0.69604134024908
H          -1.07450364120403   -1.98405516187978   -1.62209960584313
