    23
        -45.36262166  Gyration_radius:  2.44698505116 Dipole_moment: 2.536
 S           0.45262821503896   -0.15911901309453    0.94786792617028
O           0.10167901417570   -0.52446866999297    2.38980192750922
O           0.02231658018370    1.18626538447709    0.66744568639607
O           1.84810305291363   -0.42185282287135    0.73443196581013
O          -0.38869229686895   -1.12186598742185    0.08371674266348
O           1.59481322488840   -0.27675220772583   -2.99029184168720
H           2.27881265495140   -0.21883464884289   -3.65942048448340
O          -2.26710568297453    0.26045316302422    2.84768884838712
H          -2.17624585897059    1.14067664822764    3.22005232094104
H          -2.59988994575804    0.38366898574238    1.90740651606242
H          -0.86377066480481   -0.25875295135726    2.61434797892423
O           1.42900857737501   -2.26255196906016   -1.22274906567379
H           0.25399777949645   -1.70023600717167   -0.47727500213911
H           1.47407618355881   -1.64626936012521   -1.99314255477315
H           2.07660380659424   -1.93310433193677   -0.58444915662115
O           2.07979412245987    1.55306868743089   -1.09795359828120
H           1.25719057801729    1.85128325292824   -0.68712905072925
H           2.43527566457974    0.93183567413948   -0.44560443942550
H           1.74577085005754    0.47770287661825   -2.37470108994586
N          -2.75678914945326    0.65872519343989    0.29279771141319
H          -1.81918555170778    1.04097144545178    0.18368818199413
H          -3.41418853484205    1.27286362221211   -0.17115114216699
H          -2.76420261885626   -0.23370695409942   -0.18537837033847
