    23
        -45.36262144  Gyration_radius:  2.44675710369 Dipole_moment: 2.540
 S           0.77271983656697    0.44796529829391   -0.57654280530457
O           1.10170882393221    0.13569397897970    0.79021807656891
O           1.34142063964968    1.81776517724376   -0.94564345674840
O           1.20911407573323   -0.50857065660929   -1.55451706679921
O          -0.75786202329796    0.61958180773602   -0.67427929673837
O          -1.29701563387703   -3.09178929496676   -0.55172168636975
H          -1.35539105667643   -4.02344788081596   -0.76962136324599
O          -1.30440035103475   -1.14867133751383   -2.37338210170544
H          -1.11188837293704   -0.02803508004289   -1.39357768055051
H          -0.36946966788397   -1.18509478092746   -2.61802081164849
H          -1.45129311503928   -1.90884723529650   -1.76021755957926
O           1.20271383545621   -2.54014349523331    0.23005186462478
H           1.47606431281512   -2.11513350249271   -0.59610453915818
H           1.21203706785928   -1.80933625043454    0.86281969927206
H          -0.39990083070844   -2.95308177922480   -0.16856830536361
O           0.84001055204831    3.41947819004960    0.95717184002079
H           1.13233751595912    2.51302571688469   -0.22048565423275
H           0.11890331926231    2.90877026739830    1.43597379908832
H           1.61375678918343    3.39224565796401    1.52493720197476
N          -0.87038090267256    1.75553086919676    2.06701568621910
H          -0.24751223220586    0.98157713140751    1.84306114599842
H          -1.67874815240446    1.66180088972900    1.46458355559393
H          -1.17692442972964    1.65871632866307    3.02684945809686
