    23
        -45.36262141  Gyration_radius:  2.4465086259 Dipole_moment: 2.539
 S           0.92327831862682    0.49222216267802    0.19047490782082
O           2.17772208706709    0.37733152844483    1.05592143324496
O           0.94498589721645   -0.51777299557179   -0.83572193753892
O          -0.24442358519879    0.17714324543689    1.14904177582402
O           0.80812499903029    1.84634068881766   -0.27322550272569
O          -2.76319378737577    1.48406761796576   -1.30524168983931
H          -3.31703783420120    2.04916640028599   -1.84636585374814
O           2.54252843459390   -2.07568172960081    1.59191695485884
H           1.63347370487887   -2.44461744829818    1.37399229501810
H           3.13662287786357   -2.40017142981757    0.91110972941673
H           2.34886965431117   -0.59643359684266    1.33067270299188
O          -0.42942184357883    1.10273663938501   -2.55939553848354
H          -1.96460341396781    1.28053625325096   -1.84533668051723
H           0.08084291076728    1.71710057736817   -2.01159354851645
H          -0.05105915370804    0.24316354387687   -2.33038268565756
O          -1.58397463242289    2.29279587663308    0.94219820325780
H          -0.85685409256199    1.00445011696329    1.19786001600656
H          -0.81541659794806    2.72615089298939    0.54630600810806
H          -2.16400470660152    2.03225199190156    0.18647701587806
N           0.13629152760139   -2.74130548039998    0.75912306277143
H           0.23650029482046   -2.08981400617674   -0.01727730124850
H          -0.55219984336023   -2.34296315106134    1.38563282121613
H          -0.22705120588212   -3.61669769817640    0.40381381187497
