    23
        -45.36262134  Gyration_radius:  2.44671461294 Dipole_moment: 2.542
 S           0.60204921040519   -0.08750252039988    0.87225075492509
O           0.97442706774351    1.23494193972730    1.28989142183231
O           1.46330872293462   -1.09909435420023    1.62772126577408
O          -0.79032194787659   -0.42072071918378    1.02749739836718
O           0.97920133951950   -0.28216090973817   -0.61145078238732
O          -0.71989607620958    2.91880679266641   -1.58328713429844
H          -0.93912343787026    3.84078505139066   -1.72718325853114
O           0.57452175630100   -3.42232327402167    1.12770527314337
H           1.16510678900508   -2.06066634159616    1.42900472084333
H          -0.04628833455743   -3.61585869800592    1.83402779137471
H           0.02260474933865   -3.23092556974831    0.30975392522853
O           1.76146548192957    2.03484949839394   -1.18782276607133
H           0.89968299279922    2.41794347574967   -1.48071646233463
H           1.83010903559822    2.23325400954609   -0.24381198026606
H           1.37297556064400    0.60221745147899   -0.96517202871821
O          -1.51186081923875    2.21378225069448    0.87432278184803
H          -1.12111920442860    2.67109411363148   -0.71813703156428
H          -1.74420727668627    1.27593992192094    0.90526918766747
H          -0.63007855762041    2.23207535837104    1.27441605667374
N          -0.91500085039214   -2.55553796441448   -0.86117395840129
H          -1.76255600561238   -2.92867063441484   -1.26987976346628
H          -0.31270676122950   -2.24055676566510   -1.61164492770848
H          -1.15229345448850   -1.73167210221751   -0.31158047393526
