    23
        -45.36262115  Gyration_radius:  2.44626195472 Dipole_moment: 2.533
 S          -0.28413579339519    0.25705202100624    0.99236853399321
O          -1.37188574056207    1.00355822063391    1.76381466026723
O           0.04095598859090    1.16969468256685   -0.20896499777516
O           0.87531890272845    0.14055322419731    1.83126617536071
O          -0.81121074025654   -0.98247303027194    0.48264252105976
O           3.15863480984427   -0.77013639306683   -0.97943962987010
H           4.04717359859363   -1.12984889551831   -0.96894678063025
O           1.63051093588865   -2.19462233968178    0.69386134538031
H           0.70894199068828   -2.19237339665379    0.40179205009283
H           2.60614709695740   -1.38275618721314   -0.44057626250914
H           1.63203099847203   -1.54427050593754    1.41123347321258
O           2.49780577417016    1.54469856828808    0.16049134081741
H           2.39643448509871    1.22718133453772    1.06833987306275
H           2.84761678345652    0.77798264092838   -0.35443132300079
H           1.03161592451579    1.44635514744886   -0.14756280922045
O          -3.50648407997925    0.92097088662317    0.39495410126617
H          -2.24955820608949    1.03001913498651    1.23271468182434
H          -3.13508440542002    0.66311399907131   -0.50266047139965
H          -3.98790796768834    0.15597661520405    0.71855474896660
N          -2.24517194698865    0.06546247868262   -1.75055460091220
H          -1.64069831812403    0.80148016191906   -2.09412118089611
H          -2.57108702864385   -0.47340208225718   -2.54303179863221
H          -1.66996309185477   -0.53421626551914   -1.16174363050585
