    23
        -45.36262118  Gyration_radius:  2.44628520046 Dipole_moment: 2.532
 S           0.60443448796255    0.21544508846217    0.84841936613938
O           1.01723303824811   -0.23402305132782   -0.56909354944506
O           1.72911366137619    1.14451092019671    1.30403555450256
O          -0.62643995796268    0.95557133739634    0.74228041208492
O           0.57006054346144   -0.92505265948679    1.72003425164983
O          -1.55925546079536   -2.96142130384137   -0.57420868345100
H          -2.04028960907470   -3.77603660688888   -0.41950916986573
O           1.07465909869449   -2.72613497298375   -0.25398463265165
H           1.08543695329616   -2.59148266466293    0.70365011352668
H           0.13658845317914   -2.93018835033543   -0.48566538387746
H           1.12951101301755   -1.25834469580697   -0.56498355904340
O          -2.09786542917193   -1.24951586969420    1.41180609189761
H          -2.03434517245877   -0.33573877905215    1.10258598456900
H          -1.86616639545003   -2.32451022640605    0.11216277594487
H          -1.26261698095447   -1.37665405451904    1.88492105516351
O           1.57085086540887    3.29113249015991   -0.03905997309074
H           1.73050789215892    2.01623641415713    0.76254516458232
H           0.98167684399821    2.98789514436902   -0.79474465343261
H           1.04087163257621    3.88772918338365    0.49471612203279
N          -0.12278489440849    2.23816138898279   -1.75625039885969
H          -0.59005555325680    1.76038840105111   -0.98774867841190
H           0.35320157532130    1.52522583927701   -2.29511561654182
H          -0.82432661517501    2.66680702756111   -2.34679261342324
