    23
        -45.36262165  Gyration_radius:  2.4468964415 Dipole_moment: 2.535
 S          -0.12060412433744    0.84290124427910   -0.63631039275625
O          -1.15246121018668    1.89747047232918   -1.03504971949818
O           1.18637039375635    1.32449972162273   -0.98538599931673
O          -0.23670720264506    0.74203538356703    0.89934764730735
O          -0.48484121132387   -0.43227765221995   -1.19755073977794
O           2.98294767896163   -1.17619671968201    1.12987487358841
H           3.90893972959982   -1.42346695705170    1.14871067398082
O           2.11854884294932    1.30453346604569    1.56981276320622
H           2.27209224373967    1.66283929278384    0.68478102877917
H           0.67027522662153    1.00555885802150    1.31152037847591
H           2.50164554375030    0.39423823319836    1.56087433671778
O          -3.46214715203388    0.89427359805805   -0.72475581456181
H          -2.10800201145202    1.55161428956117   -0.89282471671512
H          -3.69369871700557    0.51962888567642   -1.57782682811380
H          -3.24179825223004    0.11844511632339   -0.12517300323163
O           2.14235792949579   -1.16818578250845   -1.41129981953751
H           2.15312597725945   -0.20558079559454   -1.51740134326580
H           2.68520681289372   -1.29041857043434    0.19755894474119
H           1.20119882644205   -1.38150785962842   -1.46514233182576
N          -2.52711549568798   -1.13353455678449    0.66822381998559
H          -2.16774194769834   -0.79043048592408    1.55041216306017
H          -1.73405853630774   -1.19092750440725    0.03194540191531
H          -2.89353335460476   -2.06551165727995    0.81565870688467
