    23
        -45.36262158  Gyration_radius:  2.44654888226 Dipole_moment: 2.535
 S          -0.19477267210767    0.40382889194391    0.96513847132811
O          -0.92909946772886    0.64559867614674   -0.37058936022428
O          -0.28173976874574    1.73943829105595    1.70298920978125
O          -0.90188690511765   -0.58789182251812    1.72564958312499
O           1.18135472588422    0.09842620490060    0.67050528939568
O          -1.06397398291099   -3.03623234958943   -1.09226780872441
H          -1.29202120455134   -3.96730849105846   -1.09708524353419
O           1.24684175368737    3.38738012399200    0.52603779580014
H           0.29373018157329    2.45339824888668    1.24248272977550
H           2.08804432589767    3.32674931416713    0.98474380883709
H           1.37023976403060    2.92024944221104   -0.35515879240709
O           0.70290892659465   -2.58800859467205    0.86785784050335
H           0.07132556579847   -2.18872350258654    1.48394643104428
H          -0.33687917970909   -2.93293890911376   -0.43537680475748
H           1.28460394132780   -1.84893743572445    0.64485844828762
O          -2.70842561762729   -1.12341210208501   -0.23622351253675
H          -2.53636692351624   -1.20752709283711    0.71169101011696
H          -1.73342888327457    0.00332905644165   -0.41965951359091
H          -2.21843314502397   -1.86596399310440   -0.66497873995828
N           1.51331292265128    1.82651917691640   -1.57625382966691
H           1.56956273915071    1.02022552606129   -0.95673243470385
H           2.25124321191772    1.75860718245201   -2.26575584531217
H           0.62385968180407    1.76319414815218   -2.05581873254985
