    23
        -45.36262097  Gyration_radius:  2.44623086666 Dipole_moment: 2.529
 S           0.51638384849926   -0.03247099340462   -0.92956240105608
O          -0.91304671187342    0.12680635251977   -1.00301245946846
O           1.19230027188722    0.88418334395892   -1.94867395485040
O           0.98721553125317    0.49285935451812    0.44295809466276
O           1.00266018659325   -1.36973874211521   -1.12173817488431
O          -0.25505351152472   -2.59663754930607    2.17285594505447
H          -0.35169641201220   -3.48933512750625    2.50853171687482
O           2.07061724327769   -1.57553271771316    1.37053246256254
H           1.28365553087705   -1.97267944252258    1.81582789770161
H           2.08569311584432   -1.95117696488890    0.47948724796449
H           1.50560697277375   -0.26034413258190    0.91826119517133
O           0.09558509066564    3.16743772462044   -1.80461660735810
H          -0.36677117749640    3.08957122108066   -0.91557696178404
H           0.80702802974587    1.83425185907515   -1.90364518450320
H          -0.59567776794465    3.16129857621184   -2.47077012729364
O          -1.31735273931469   -2.47884929331462   -0.28109247462412
H          -0.75078358113421   -2.56635873756265    1.32179638423930
H          -1.64901425448527   -1.59006725462829   -0.46739947600347
H          -0.47492055824305   -2.50026084108552   -0.75797332675711
N          -1.13159156956840    2.57455907306360    0.44654298336658
H          -1.31525278346920    1.63867053859795    0.08939914860991
H          -1.98263548468253    2.93890404292829    0.85579238056406
H          -0.44294926967155    2.47490969004757    1.18207569179565
