    23
        -45.36262144  Gyration_radius:  2.44672734543 Dipole_moment: 2.538
 S           0.80867522792412    0.66472610625409   -0.18159713438644
O           1.18462225160921    2.14174789879839   -0.06836170733195
O          -0.62027665573845    0.66770641520904   -0.76434044295785
O           1.70237227304769    0.03361852070966   -1.11161960884567
O           0.75609633703264    0.07293185325563    1.13016740062568
O          -0.43452213977905   -2.99996262460923   -1.53427738377390
H          -0.24050283459892   -3.85143944101057   -1.92944221797095
O          -0.26201565452703   -0.68949232069567   -2.84822497810185
H          -0.43871245980091   -1.58763292061068   -2.47736598660884
H          -0.60260486104964    0.17554530722048   -1.66950218138097
H           0.69102326518947   -0.55141842195908   -2.75956119968286
O           1.54569842988655   -2.35449908789206    0.14648494381258
H           1.21686294681703   -1.80270154232496    0.86881808412634
H           0.25622051513469   -2.84990115868753   -0.84783446282865
H           1.97129286566573   -1.71241667253337   -0.44038877699478
O          -0.17783495239894    3.16151663009636    1.81354265834319
H           0.37398147835734    3.09124266661750    2.59604061102983
H           0.63219614851482    2.60982492661108    0.65865896419971
H          -0.89737806607862    2.46672256524248    1.91064293010006
N          -1.78846623838034    1.08363583186821    1.93417036004268
H          -0.98870014987830    0.46831947823279    1.79661070669217
H          -2.33699595399078    1.04161148315188    1.08420353160166
H          -2.35103177297922    0.72031451701534    2.69317588024904
