    23
        -45.36262147  Gyration_radius:  2.44702093886 Dipole_moment: 2.545
 S          -0.05682359159059   -0.89298908882351   -0.57265737746823
O          -0.70895715296618   -0.58348676691858   -1.81402558987592
O           0.00433632291382   -2.41232410048635   -0.41891461927790
O           1.25884000544970   -0.33243920769479   -0.40400672245623
O          -0.93610353663126   -0.41497532560881    0.60200307274670
O          -1.32515170254328    2.99224606061941   -0.92216400049076
H          -1.59314316781662    3.73372473076093   -1.46744498605468
O          -2.76390790263745    0.76688634635884   -0.65281190884930
H          -1.76898067450320    0.05243182113058    0.21463392927147
H          -2.36453569779962    1.66940540463751   -0.68994299227748
H          -2.47967274873464    0.32014418689172   -1.46210138391081
O           0.68696876280450    1.70932556437978   -2.13479859342373
H          -0.51917588755671    2.61497504780156   -1.34517908462857
H           1.27217684524407    1.29341303612256   -1.48765654673223
H           0.15437920476741    0.96629354850625   -2.45465366803987
O           1.44438261495518   -2.94439883221553    1.60116380031180
H           0.54830374284581   -2.67925027284644    0.40921728225154
H           2.33165183700847   -3.06898349561469    1.25628527059387
H           1.44242142285921   -2.05151702494454    2.06253560949955
N           1.39297955476576   -0.45178994939501    2.44364702607074
H           0.45097136841726   -0.21992467714598    2.73349835599666
H           1.48884154740785   -0.13488379397395    1.48056779611179
H           2.04019881359297    0.06811673854098    3.02280532072772
