    23
        -45.36262134  Gyration_radius:  2.44667412878 Dipole_moment: 2.546
 S           0.14420502342118   -0.48948020659979   -0.93282339998390
O           1.13894940718847    0.32793413882238   -0.08208204512851
O           0.33362013223149   -1.88943012763090   -0.67545751841413
O          -1.18056652125387    0.01595610694249   -0.68127071079970
O           0.54221333160410   -0.20072100327387   -2.37991383519087
O           0.16415428425958   -1.51296679643397    3.03721386565311
H           0.06457837113801   -2.16981188442620    3.72823089206028
O          -0.10648497278095    2.19351676338053   -2.91340777202677
H           0.33256199050339    0.77095901559830   -2.63441652992805
H          -0.98416952505048    2.14040604042539   -3.29878956677534
H          -0.22661100599403    2.55817455807515   -1.98464227272261
O          -1.66829431535393   -1.96735749939894    1.14005518287633
H          -1.05819567883683   -2.36989195547040    0.50463480129672
H          -0.59026303398800   -1.64697015444712    2.41771668478098
H          -1.92374161264345   -1.14385948254813    0.70304972792032
O           2.17447138888720   -1.50497265950092    1.28964301641472
H           1.54869744053545   -1.49457443952061    2.05350877906681
H           1.81914014791647   -2.15453016618499    0.66747853175686
H           1.67916256585255   -0.32584289436581    0.50329798228356
N          -0.51761602976147    2.77499264398628   -0.37973071850908
H           0.36692049979129    2.75279418674278    0.11238269245892
H          -0.94737873780869    1.86087366012286   -0.25022377293500
H          -1.10535316986075    3.47480215567063    0.05554598572072
