    23
        -45.36262135  Gyration_radius:  2.44645762526 Dipole_moment: 2.538
 S          -0.83371559869451    0.31231835012438    0.58226980653755
O          -1.14089700379590   -0.36968152521771   -0.64827441746334
O          -0.87569324744524   -0.49668765073272    1.76781953557484
O           0.56665600195491    0.94580869094729    0.44285849406821
O          -1.77986214896561    1.49837874478570    0.76644934152853
O           2.24377417675040   -2.37400966651968    0.93126036932881
H           2.60966462126583   -3.17726565253876    1.30508149662907
O          -0.34952777655526   -2.76912975388284    0.39965315091413
H           1.32473369677944   -2.59286660774356    0.65121339827021
H          -0.68556959656563   -2.27832373534112    1.16382481829642
H          -0.63389298577267   -2.22654397559120   -0.34817556204036
O          -1.94115686240375    2.72905032400754   -1.44650017584068
H          -1.13109438684982    2.36280576470052   -1.91518073477129
H          -2.70454302583604    2.35478212081238   -1.89256461969448
H          -1.85107969253269    2.05168254147721   -0.09470626392843
O           1.76134713871359   -0.17175516605852    2.34974273126111
H           2.09888728061243   -0.96764096920961    1.87220986821030
H           1.15653009811584    0.60324363854436    1.21528539958958
H           0.90531510381717   -0.42968000718198    2.71837970112725
N           0.12485440780540    1.44450997559823   -2.45062432320748
H           0.37917196589022    1.23771965941720   -3.40830249877924
H          -0.20522133874208    0.58865724746642   -2.00814071286861
H           0.96131919245037    1.72462766213943   -1.95357879274777
