    23
        -45.36262122  Gyration_radius:  2.44667039664 Dipole_moment: 2.534
 S          -1.00027834075263    0.27756734543468    0.23134388148956
O          -2.36895024600201    0.45675064450988   -0.42460198347882
O          -0.69030870518570   -1.12476463124080    0.33756341149633
O          -0.00412365199376    0.91530534454711   -0.75989322258074
O          -0.98292564479711    1.01232329622613    1.46494789305326
O           2.73433702286081    0.89123070420470    1.81012142911687
H           3.29498393559034    1.09484831118561    2.56063916875607
O          -2.49209990617888   -1.09450237209254   -2.42848778765160
H          -2.45487362076008   -0.12538216176834   -1.26526825076825
H          -1.51704652369302   -1.30329348585147   -2.55463563539907
H          -2.90163401726321   -1.89980369317728   -2.10369709776132
O           0.75011166765024   -0.70932576742435    2.62517995168967
H           2.08604860371347    0.21869535594073    2.12393947267245
H           0.06853523349516   -0.02178046012335    2.64821114302896
H           0.45433411745613   -1.28349802602837    1.90591197267986
O           1.05673425533554    2.64834108009268    0.71783271359184
H           0.32479500826003    2.54561038277327    1.34156043373140
H           1.79766191817630    2.10631347159953    1.08203942045933
H           0.47303463221653    1.69498517840369   -0.28397641577831
N           0.09362960088541   -1.57989841095459   -2.36774440241063
H           0.05449277801927   -1.61163375955645   -1.35057995929840
H           0.59448266015996   -0.73484792017799   -2.61319126412464
H           0.62905923278512   -2.37324042654033   -2.69721489250922
