    23
        -45.36262152  Gyration_radius:  2.4467601212 Dipole_moment: 2.541
 S           0.12371829443698    0.20997506613351    1.03440997167213
O          -0.18352878097508   -0.37354968396058    2.41318311429687
O          -1.08913129623571    0.69680206555969    0.42966152445634
O           1.18017527578438    1.17314165635720    1.16879532372911
O           0.62589269772181   -0.98999400441561    0.20410639867221
O           1.93253165553655    1.27183325265859   -2.48908666419251
H           2.45817362101363    1.88810125477521   -3.00179070952811
O           0.27791991381791    2.65584137300497   -0.90440016461988
H           0.78482124195523    2.52435712927895   -0.08972258160741
H           1.26709403114963    1.81286356230082   -2.00395083025841
H          -0.53431466829029    2.15943929673722   -0.73648114704568
O           2.90154995096945   -0.15868900055198   -0.46179775131239
H           2.65756594231037    0.29315374355724   -1.30537228182681
H           2.84170903923740    0.51852693373623    0.22600863138344
H           1.59314773676956   -0.79615838276696   -0.09393974334026
O          -2.26257767117418   -1.81427976031435    2.21433488734643
H          -2.29362625361390   -1.94751024659183    1.21869719836916
H          -0.99881096256587   -0.99567815228713    2.37864035489009
H          -2.99625485052888   -1.23485341730720    2.43273149902744
N          -2.16098175638606   -1.80895488497177   -0.41550733632830
H          -1.89445173286985   -0.82632313095488   -0.39305416202134
H          -2.88722743433283   -1.93287680434700   -1.10964212778897
H          -1.34339396377509   -2.32516786572100   -0.71582340409354
