    23
        -45.36262147  Gyration_radius:  2.44700869666 Dipole_moment: 2.541
 S           0.79704022586826   -0.66472373143313    0.22752727051714
O           0.72374078946445    0.87104542160463    0.35898952585969
O          -0.53301774882071   -1.19190128884366    0.39112649553877
O           1.45413019788173   -1.00772895097254   -1.00233665328154
O           1.67817862841551   -1.11265282675423    1.39326678291497
O          -0.69686768215593    1.21542390912752   -3.09775205038909
H          -0.81055928729382    1.25870166151390   -4.04858574423403
O          -0.88416538412986   -1.33855290086598   -2.31855047785154
H          -0.87972576510912    0.28224091195836   -2.83960749198214
H           0.06636248659597   -1.47564983119852   -2.19313263477362
H          -1.23228015210488   -1.40087627890964   -1.41893824014606
O           1.64390899344645    1.56136495713776   -1.87459730408027
H           0.79944116051365    1.58795156474205   -2.38598578222118
H           1.12913062882548    1.28931383017614   -0.49138955627097
H           1.99477539568647    0.66794711224850   -1.99258928536061
O           0.36338914212968   -0.80392526415726    3.54119652426063
H          -0.06310963038011   -1.64867515637259    3.70326686536681
H           1.20265486069733   -0.97325987546722    2.29185455823310
H          -0.35666555535226   -0.17947192317004    3.22217696322434
N          -1.47023486244263    0.65985692066979    2.34927422052630
H          -1.42890324626777    0.03804731679429    1.54382266738174
H          -1.05595715874129    1.53742761172774    2.06053854659874
H          -2.44126603672391    0.82809680045493    2.58042480016686
