    23
        -45.36514201  Gyration_radius:  2.28480950035 Dipole_moment: 7.083
 S           0.39318410017256    0.60325111691922   -1.81031586999838
O          -0.43628250547791    1.21393607435311   -0.76135697954714
O           1.88256157671015    0.88949746303684   -1.41338910235285
O           0.23209365184875   -0.87912396429740   -1.71050268117610
O           0.13758946077265    1.10906620889544   -3.11322435662251
O           0.52912642194507   -0.15114188134922    2.35604551557043
H           0.78249683961940   -0.14684335186884    3.27996533994392
O          -1.90990966795671    0.12849958317944    1.13502946728182
H          -1.49875435609327    0.76337172630543    0.50836911517639
H          -2.12571028395441   -0.88999389904829    0.02366820433331
H          -1.17569075245564   -0.10689813683873    1.73161245394063
O           1.13224093098955    2.10314652316629    1.13758170497973
H           0.51084272189871    1.92425416018607    0.39353665710968
H           0.77491116625613    0.74251228963266    1.99466546374175
H           1.99613935279459    2.18565286000082    0.72682617135484
O           2.00859798087669   -1.13944436025225    0.23030569842825
H           1.35225211458924   -1.41361115681229   -0.43318082149076
H           2.10710563134064    0.17865110315223   -0.76305939004490
H           1.51334724663709   -0.93210336496257    1.04174152191313
N          -2.09778317659095   -1.44316390149722   -0.90964379460227
H          -2.23256122516825   -2.43983002304251   -0.77485161631191
H          -1.08530239819784   -1.22832385980062   -1.31802933063875
H          -2.79049482055579   -1.07136124905747   -1.55179338098753
