    23
        -45.36742383  Gyration_radius:  2.47511379059 Dipole_moment: 5.015
 S          -0.90171140600538   -0.01855283511136   -0.87182680532102
O          -1.20984468241052    0.47001915666285    0.45190432740637
O          -1.87978243288538    0.62819427316245   -1.90754029074380
O           0.44672007145670    0.34189463872079   -1.29169198889979
O          -1.08685669213734   -1.48190095420657   -0.96079441890480
O           2.14842113555533    1.66250734270139    2.12748087319415
H           1.86283751294249    2.32418049341139    2.75992589388247
O           0.53281659505014   -0.44649208969589    2.19175943819443
H          -0.23934470813981   -0.06716440678663    1.70681340413201
H           1.03539783729628   -1.27715974136191    1.12311123660688
H           1.17099905776137    0.30481401487688    2.27484779744885
O           1.39791598187079    2.58074761988147   -0.26842850963480
H           1.99702574978770    2.88944398779351   -0.95035101472426
H           0.94166353362341    1.79678108442558   -0.64588315519838
H           1.91174304734909    2.02362329348373    1.24278217189414
O          -3.67725906933283   -1.26369329759194   -1.42682798425301
H          -3.91056918974998   -1.79887212515590   -2.18876043708476
H          -2.80582215355332   -1.58382991717999   -1.11923423212544
H          -2.73401304818347    0.16703909131412   -1.77728831141491
N           1.24964142692502   -1.74949660342511    0.13035329482590
H           0.29676892056449   -1.95605802046489   -0.27835936195909
H           1.86980434582991   -2.55149552955523    0.16117671505845
H           1.58344816642737   -0.99452947589691   -0.48316863239678
