    23
        -45.36742379  Gyration_radius:  2.47527305778 Dipole_moment: 5.015
 S           0.87617100880319   -0.50307062365805    0.74286914885114
O          -0.48743060008853   -0.96770623533383    0.84585967829115
O           1.24645390783105   -0.18213425408330   -0.62987246079962
O           1.11348611980956    0.66342284499462    1.61845158013889
O           1.84974188688222   -1.63295319504151    1.21538019238735
O          -2.30151536555286   -0.19694473718512   -2.56349245095853
H          -2.99497469443529   -0.85780309210307   -2.60483735746690
O           1.57967659901982   -0.84554072459943    3.73507340979828
H           2.39362552444079   -0.56105509338425    4.15694709731896
H           1.29786997858421   -0.11202959727325    3.15276840082257
H           1.77474907152554   -1.64585452773836    2.19184679768654
O          -2.14095369265673    0.83268249445730   -0.11873651865985
H          -0.99795859751643    1.71104264997287   -0.20718105990250
H          -2.30405118259364    0.50575440860667   -1.03804816276303
H          -1.69049392672020    0.08196823816480    0.33806133121532
O          -0.00435476720385   -1.56300285354210   -2.49897149464847
H           0.63860377944319   -1.59099205183389   -3.20964256624158
H           0.45357787020758   -1.14211715996308   -1.73852424919112
H          -1.45584874210449   -0.70041852877982   -2.58563786364095
N           0.03540942755637    2.14246769193591   -0.21736496828815
H           0.47082996510091    1.81466482985942    0.68864898559741
H           0.08039009490724    3.14567023831556   -0.35965532052741
H           0.56699632479250    1.60394930817510   -0.91394214898684
