    23
        -45.36742378  Gyration_radius:  2.47534814192 Dipole_moment: 5.016
 S          -0.27771591968618    1.20931128253238    0.18274091373967
O           1.01937622202798    1.64733145361119    0.73911488036406
O          -0.89703366598445    0.20909222678189    1.02051947650152
O          -1.19513300437631    2.47480288197579    0.11541526744477
O          -0.10380856838020    0.74795090281184   -1.18888968466622
O          -0.84604041274511   -3.21534503856042   -0.92436695844161
H          -1.59077988273211   -3.69511441626807   -0.55763848485778
O          -1.88001291822321   -1.01263804393765   -2.03195291752845
H          -1.30236725324193   -0.31309065078106   -1.65501698550146
H          -1.92190011182933   -0.83897144047391   -2.97393301558787
H          -1.23354941712855   -2.42816589447774   -1.37077117611599
O          -0.10943918246609    3.41100200754681    2.34837539473070
H           0.33395815945438    4.25733276449368    2.25585336648741
H          -1.08260552082296    2.92068671160596    0.98021467144345
H           0.49379710237841    2.73914392756302    1.97260400972247
O           0.52255750537967   -2.00235354392397    1.00407844923429
H           1.52155687662539   -1.25462671684187    0.27671898108863
H          -0.09299229552349   -1.25159429018979    1.18462954344841
H           0.05365837767086   -2.55529028817084    0.33106333411888
N           2.07825291878925   -0.47606807483166   -0.30454201739887
H           3.04973907733231   -0.69613334535157   -0.49581696981775
H           1.93733304632514    0.41757973794918    0.24283633213488
H           1.52314887721037   -0.29484215302210   -1.15123641057460
