    23
        -45.36742376  Gyration_radius:  2.47524240689 Dipole_moment: 5.016
 S           0.85574621631706    0.91611055887770   -0.02509895849637
O           1.76867297426722    1.97851731713207   -0.72183599445361
O           1.17262542692250    0.95647031541087    1.41773202267844
O          -0.53090946722924    1.23939067429201   -0.26708760579674
O           1.22459759404712   -0.37912522652628   -0.58253246850937
O          -2.34446845946182   -2.02285090311130   -1.52276919938132
H          -3.07565952965236   -1.68849440581454   -2.04512310235535
O           1.58035102188517    3.56562744829710    1.39638450419149
H           2.41552763064517    3.76162894580038    1.82703971772981
H           1.70677887929677    2.77883062887090   -0.16057906548573
H           1.33333037925997    2.65955354154529    1.66941030158495
O          -0.12977580524435   -1.12492823746172   -2.72123547214501
H           0.50032888895075   -1.67278164384519   -3.19247514785827
H          -1.52986017613403   -1.72923749088241   -1.99106743244596
H           0.36232280427917   -0.74080615876018   -1.96264102513556
O          -2.09051648166509   -0.62824797021785    0.72520131220547
H          -2.28501488041510   -1.19002943354048   -0.06549091045243
H          -0.90007544199518   -1.18466440727665    1.32407866213203
H          -1.67791061878384    0.18957566283986    0.35626414811945
N           0.15625681685092   -1.42052411101264    1.61178368187428
H           0.64617434508445   -1.66308924714486    0.74058644825723
H           0.25690933216788   -2.11774747979409    2.34152431465006
H           0.58456854051555   -0.48317837789232    1.84793125936052
