    23
        -45.36742371  Gyration_radius:  2.47519871354 Dipole_moment: 5.015
 S          -1.12202843702668   -0.19458431391057   -0.52426326666218
O          -2.08898849947817   -0.55489550474566   -1.70010698827832
O          -1.96739150452943    0.15349416392956    0.63673023322815
O          -0.27299409770291   -1.32641227672141   -0.23460458113590
O          -0.35901280868802    0.97017711056546   -0.95508620038522
O           3.44931168271097   -0.05186476004133   -0.07571424683551
H           3.96390947885848   -0.82765434904644   -0.30525985834743
O           1.49405335643116   -0.69547899867072    1.60500538264922
H           2.29616505641552   -0.47772874885204    1.06848032308697
H           0.76876954277927    0.54413831734821    1.75514147636680
H           0.87632996479791   -1.12876135582815    0.96790881199902
O          -3.80615531998441   -1.63540370086108    0.00992259934710
H          -3.20749021196294   -1.04463402820436    0.50903821405534
H          -4.67213284227504   -1.22159062465940    0.02508470003365
H          -2.76473474914722   -1.14473031289520   -1.30657682652280
O           1.90757851262795    0.44796945846512   -2.20179675541756
H           2.00687169520961    1.20002403305427   -2.78814077981464
H           2.91587028814076    0.15718938415707   -0.87624163705718
H           1.02368738269005    0.54712194079010   -1.78452711843752
N           0.07223696267099    1.41153138066910    1.62562124484515
H          -0.88205245996816    0.97252345464735    1.50541330743831
H           0.25120309158767    1.78828993257240    0.68551171865420
H           0.11699392564168    2.11127980828970    2.35846025731419
