    23
        -45.36742360  Gyration_radius:  2.47548528604 Dipole_moment: 5.017
 S          -1.18237613037065    0.14722109653085   -0.39103543037344
O          -0.93357345011162    1.13118407140501   -1.46525498265177
O          -0.81428437512891    0.71274119162113    0.90089305990466
O          -2.72676954134381   -0.09864533434131   -0.34739668152201
O          -0.50309018736893   -1.09972945512189   -0.65437053880976
O           2.38708010725897   -1.49659318762350    1.99257261021826
H           2.50818537520627   -2.44554788349663    2.05700714479007
O          -0.13330648743368   -1.03607472514831    2.75660272803547
H           1.47374773925558   -1.32474603617028    2.31721146119441
H          -0.38947450234981   -0.59611689387669    3.56904127053647
H          -0.45827596620041   -0.46404296117727    2.02697076772532
O          -2.87035203735720    0.17252240873992   -2.98318440745434
H          -3.42717437703511    0.89424763827742   -3.28393947628218
H          -2.03320340555388    0.57625483179601   -2.67885393722448
H          -2.99608258665941   -0.21389637242791   -1.28205085105797
O           2.10114819124038   -0.76238556724148   -0.54562928270584
H           2.31940481932892   -1.06038223904907    0.37208703168671
H           1.17193224466941   -1.06265883367770   -0.69210100255046
H           1.82756902763059    0.65265795167333   -0.44804873651465
N           1.33877318847388    1.65345212292316   -0.33321535559276
H           0.85318551194847    1.63641907260916    0.57316984010827
H           0.52937511665936    1.63510485395617   -1.01361068263810
H           1.95756173524154    2.44901423991624   -0.44686455885613
