    23
        -45.36742376  Gyration_radius:  2.47518503475 Dipole_moment: 5.014
 S           0.81735166078547    0.76420254233124   -0.56666833615245
O           0.18165577109577    0.81055598879674   -1.89993439478153
O          -0.05802801089603    1.29723584377024    0.45092571376418
O           1.24901380533239   -0.59485947815561   -0.26486922752529
O           2.11330606095865    1.63656586498203   -0.64951801180170
O          -1.18622903329086   -1.67750109848291    2.77233301941096
H          -1.38038314685279   -1.25058571644180    3.60863313529697
O          -2.15864301219201   -0.25245358330999    0.75104772126148
H          -1.68988318958846   -0.96945394589675   -0.41114695886544
H          -1.90867539159230   -0.80684846431574    1.53133970904653
H          -1.48819815445878    0.47241930749489    0.73340085039848
O           0.90489802565646    3.31729395613495   -2.30966325860301
H           1.31606031954661    3.39340881568072   -3.17367870226730
H           0.40858488427225    2.47457210903622   -2.31175823201256
H           1.84160207357105    2.45837448876269   -1.10790660531166
O           1.40106925573554   -1.19813191058032    2.29965387158824
H           1.37426067789247   -0.86825353032389    1.37458787467036
H          -0.22323388145906   -1.53865130331560    2.62265675822742
H           2.09570398808380   -1.85857773450321    2.32274990685914
N          -1.08500007616514   -1.36145662077967   -1.26851265491080
H          -1.56184712686857   -2.03548788787953   -1.85762723054373
H          -0.20750088862158   -1.71547687708486   -0.86554862440506
H          -0.75588459097523   -0.49689076600507   -1.78049632324148
