    23
        -45.36742369  Gyration_radius:  2.47543989927 Dipole_moment: 5.017
 S          -0.28399133671665    0.30176182530416   -1.18354392811056
O          -0.67151530765905   -0.99274616906290   -0.67371366893657
O           1.00313862138577    0.73826206313619   -0.65700957205886
O          -0.12776463422634    0.22506986750499   -2.73831462021470
O          -1.31823884706111    1.31995847805712   -0.90475650252661
O           1.70274673244863   -1.87796935674093    2.34158423053037
H           1.70255084055500   -2.83668842823472    2.35585864496306
O          -0.75759971165573   -0.95129977806573    1.95275639149793
H          -0.55851656354919    0.47575867489393    1.85171485035051
H          -0.84422746939791   -1.13733887968496    0.98687227021960
H           0.12080322658806   -1.33095108165309    2.20365140536159
O          -2.72377964137579    0.67955070595676   -3.04693243258554
H          -2.93744815161760    1.47577775416857   -3.53865180972209
H          -1.04213624062879    0.20038901203940   -3.08847400727894
H          -2.46679068279679    0.96863630597494   -2.14865562248949
O           2.69612560400686   -1.19121602439323   -0.04374331562296
H           2.11059406186553   -1.62716834945711    1.48141384488196
H           2.02862138234020   -0.54099399450797   -0.35487471496629
H           3.55010407798795   -0.77907827371564   -0.18557224428999
N          -0.34811117311550    1.51477429378237    1.49108514785254
H          -0.46682769840669    2.24297426614177    2.18698190117924
H          -0.96017899634239    1.63007151909327    0.63648514544921
H           0.59244191733206    1.49246554949876    1.07583860646430
