    23
        -45.36742379  Gyration_radius:  2.47533059273 Dipole_moment: 5.015
 S          -0.52306494545787    0.96591273813435    0.60494532948745
O          -1.31119548221804    1.64108549604917    1.77567431477113
O          -1.40771036353851   -0.04247335621210    0.03484391896308
O          -0.24665113470539    2.02095057197748   -0.39226669074026
O           0.70045246902024    0.39284667057199    1.11522616782755
O           0.96091483098402   -3.30800570366235   -0.20397985457564
H           1.50064466913851   -3.74487253220996    0.45723989717114
O           0.08270144040772    3.87665538369732    1.45777088119410
H           0.16240554677676    3.34687748069797    0.63957063682524
H          -0.44107636718213    4.64886399442530    1.23243841942195
H          -0.82977740591706    2.47289413149861    1.96438569307078
O          -1.21653469594697   -2.45358091923176    1.09087213191341
H           0.13975491041857   -3.03435519065730    0.26490340732967
H          -1.26273274804708   -1.51601592681057    0.80107613393929
H          -2.09979683931228   -2.80799422328084    0.97476096031353
O           1.95912865915576   -0.91471579557195   -0.78560592104631
H           0.98143555483839   -0.36300624135965   -1.69458390558807
H           1.67280031931089   -0.42529343747275    0.02281391315529
H           1.68205060385616   -1.85050079100385   -0.62367199549539
N           0.09106181438525    0.14327462036762   -2.14701498668868
H           0.05157168449277    1.08795013945100   -1.67350269827963
H          -0.73751346872192   -0.32368017324230   -1.75556229944028
H           0.09113096001090    0.18718304323418   -3.16033344302093
