    23
        -45.36742383  Gyration_radius:  2.47513965152 Dipole_moment: 5.014
 S           0.84792398875852    0.41159853831840    0.82776812791616
O          -0.37045612189454   -0.19873940024035    1.34491482617645
O           0.60807279470594    1.17386824500591   -0.37528763513271
O           1.38243941023533    1.36184693284083    1.94977504335621
O           1.88124417183913   -0.62235809978311    0.61131273948017
O          -2.99485002206789    0.28138740841416   -1.69071549487899
H          -3.25643582649592    1.06254055258623   -2.18135246225339
O          -2.60596128090760    1.10318090125250    0.82341046109011
H          -1.72326875515159    0.72005285699318    1.02169981398096
H          -2.89634371399004    0.57706517177741   -0.75694581162078
H          -3.16445080630045    0.87528291360963    1.56864783767455
O           3.86143054043505    1.06947085834743    1.04925632261974
H           4.47538740767724    0.68591701298278    1.67962885827934
H           3.32089740650874    0.33120326008125    0.70389858071233
H           2.31300245646850    1.54801413610550    1.70756148727804
O          -0.46943253962751   -0.35203014711861   -2.22315183682121
H          -1.43374275787015   -0.14930460277243   -2.13572552982900
H          -0.01721811894531    0.34531193261251   -1.68977701621766
H          -0.21541320641681   -1.46140925172813   -1.33479573430240
N           0.04091874178933   -2.10498263621521   -0.45461283988240
H           0.02669990896432   -3.10319867826688   -0.63391975273833
H          -0.58523013643485   -1.81505806699922    0.30807836694327
H           0.97478645852099   -1.73965982774442   -0.11966834185644
