    23
        -45.36742382  Gyration_radius:  2.47512893022 Dipole_moment: 5.012
 S           0.91593106944078   -0.38501801508337   -0.76568429444304
O           1.72059120825012   -1.13634292550965    0.22006066888768
O           0.87496623713972    1.02700749764764   -0.40658708752598
O           1.66975823695211   -0.47630806013803   -2.13350051090320
O          -0.40547533807103   -0.95099500075102   -0.90514636203838
O          -2.99552826257507    1.60281275427216    0.60360221287195
H          -3.80678177360832    1.40746415819249    0.13131242012176
O          -1.23668118754509    2.35839484409367   -1.26268646778384
H          -0.45960409918335    1.80061954865564   -1.03844799704492
H          -2.36354196633467    1.92404956067211   -0.07937328352744
H          -0.89818886661324    3.24887438373425   -1.37077691124128
O          -1.76989346357787   -0.64392485948118    1.31930830310062
H          -2.30868756098272    0.16445919230959    1.13253063955279
H          -1.39940986382772   -0.90643355549820    0.44232854295243
H          -0.53921174209672   -0.17244854854094    1.90885034494032
O           2.46437302730119   -2.94189831929771   -1.55806279442719
H           3.41629298732302   -3.05818291486102   -1.51596741520411
H           2.20138166306823   -2.50239843838471   -0.72489015886851
H           1.92396052740489   -1.41772712907397   -2.22508858707289
N           0.50502903212257    0.19250016613172    2.08489578774042
H           1.11972394868899   -0.50154437504204    1.57676886702355
H           0.75319315576062    0.33058037434970    3.05862191894224
H           0.61780305110196    1.03645967162267    1.50793217385431
