    23
        -45.36742377  Gyration_radius:  2.47535047489 Dipole_moment: 5.015
 S           0.82114738133805   -0.01145061383260   -0.94789595457297
O           0.54182260769935   -1.27150832141608   -0.27060301111056
O           0.80881528557069    1.11104201859375   -0.03918430874823
O           2.24336168537349   -0.15215844591688   -1.58438488725018
O          -0.13042345116631    0.18831755825843   -2.06076033022648
O          -0.77542398960228   -0.08788503534829    3.36139886363282
H          -0.38964016450709    0.50285843966886    4.01064439866743
O          -1.50739161440136    1.26296721711404    1.19297669559193
H          -0.61755234786952    1.40519811621697    0.78916045676368
H          -1.95656984562979    0.22447551846649    0.29550080827932
H          -1.32304365425230    0.81540014292550    2.05572369041458
O           1.28132515396264   -1.39324601004703    2.25986564871120
H           1.09573802088770   -1.28023267975823    1.30177218369978
H          -0.02114879725113   -0.59957349461995    2.98946384100800
H           1.46984543869593   -2.32527873949105    2.38247573110866
O           1.59984117309717    1.60083612079994   -3.46978364184256
H           2.30267158853812    0.56895495659375   -2.24451746588362
H           1.63615938951336    1.25928341185986   -4.36614103475977
H           0.77336572561305    1.25763553429012   -3.07526973432223
N          -2.01691558580494   -0.59536908906777   -0.46495510612951
H          -1.38577317534348   -1.33931227996049   -0.13935466284602
H          -1.49518574056225   -0.21997401778322   -1.30457639341727
H          -2.95502508389542   -0.92098029745419   -0.67155577675558
