    23
        -45.36401752  Gyration_radius:  2.40225883616 Dipole_moment: 1.936
 S          -0.32653935806556   -1.00118374665134    0.88031259462607
O           1.05556787097286   -0.32816662128756    0.71506345011596
O          -0.12627051681997   -2.41155393458020    0.91748733093773
O          -1.02454567503020   -0.38584305851575    1.96984706019445
O          -1.06970432549945   -0.61466477585453   -0.42728820541080
O          -1.49500850276683    2.14232806288740   -0.75326871537702
H          -1.55280953621680    1.18360445200381   -0.86233602661361
O          -0.09133621859356   -2.46684065805557   -1.77791081490726
H          -0.75329150866597   -1.33080528179155   -1.11097908445914
H           0.84028481468017   -2.14046079503401   -1.92018215701956
H          -0.05733742982749   -2.99535787939986   -0.96662840553830
O          -1.77257978345397    2.15038179729886    2.03588808981925
H          -1.56270847594968    1.19235471600333    2.05648811210728
H          -2.35279594866119    2.31101045568336    2.78107569688107
H          -1.95438978597869    2.34192540464058    0.07578296037113
O           0.69831088765403    2.16176259841411    0.71446017393255
H           0.19782691978080    2.37835342236202    1.51364818338852
H           0.95472695570480    0.70451166732804    0.74088765847210
H           0.03433277264655    2.27995433327949   -0.01166294038224
N           2.36758673986076   -1.42516252036494   -1.72564755050474
H           2.23010851004351   -1.02228421912949   -0.80276492818779
H           2.59854768794088   -0.67328961073417   -2.36266145756832
H           3.16202393615993   -2.05057380852227   -1.67961100494893
