    23
        -45.36742386  Gyration_radius:  2.47506043849 Dipole_moment: 5.014
 S          -0.69730800134225    0.18875251591160    1.02567323816965
O          -0.25949079160006    1.35792058798605    0.27346799603228
O           0.29540834140216   -0.86026508701795    1.03014207144345
O          -0.95319976118595    0.67109713653306    2.49180620571222
O          -1.99023067004888   -0.29759465958864    0.50091105537700
O           3.01254730531221    0.01561737667327   -1.68267067182555
H           3.80090977078790   -0.42729025144351   -1.36382854821952
O           0.88991263360641   -1.56343754452243   -1.43074655038839
H          -0.20165351869653   -0.71524745033313   -1.84699979761576
H           1.71646558490572   -1.04979495558592   -1.60866700871161
H           0.75004724056753   -1.48356374587326   -0.45636887865276
O          -2.73117733053092   -1.26718490743063    2.84338420581868
H          -2.60720454433881   -1.13589170659171    1.88220542480955
H          -1.48943395512681   -0.03666790598798    2.90516920967652
H          -3.61951234936367   -0.96578544005745    3.04694057692106
O           2.34701351296640    1.76874522424905    0.22273595928012
H           2.41145038902253    2.72170201556727    0.13935993146774
H           1.39206954597501    1.57330591239765    0.34568867272153
H           2.79564581705714    0.69169454812651   -1.00079173920426
N          -1.03746077664961    0.02936103169824   -1.88789429246143
H          -0.64331540714261    0.92471154954874   -1.57046249983085
H          -1.66617287357486   -0.23033067944846   -1.07854104968104
H          -1.51531016159680    0.09014645555573   -2.78051351102683
