    23
        -45.36401736  Gyration_radius:  2.40232422577 Dipole_moment: 1.929
 S           1.12128279603211   -0.10060990150018    0.78354963559426
O          -0.35923302524388   -0.24388793332542    1.22968543160947
O           1.04741629504030   -0.27150456962062   -0.75134586595001
O           1.53561892000531    1.23616895621993    1.09063542300613
O           1.88584006427310   -1.18209791940959    1.30936735416038
O          -2.07476087095152    1.74246747504237    0.23031093823716
H          -1.72079119315147    1.01174805277026    0.75483752739967
O           0.16009942899811    3.41336267985571    0.48710351268146
H           0.53736354516489    4.18051502765922    0.91941723954879
H          -1.61027230348710    2.53580236162468    0.53550653304227
H           0.69733900822487    2.64592961927458    0.77826770274706
O          -0.31843567887363   -2.73523763188425    1.29268683591345
H          -0.49482501978724   -1.27144672600837    1.30675431731681
H          -0.33186161915699   -2.96004392203897    0.32110003683815
H           0.61905793033113   -2.68083259192629    1.53082885509820
O          -0.24918926747230    1.67630213999982   -1.67474612498704
H           0.17075777391388    2.48217444150384   -1.34272969513584
H           0.54461453072437    0.53133213290789   -1.17524114274199
H          -1.09548440701002    1.62953479623439   -1.16140472133391
N          -0.08412620549010   -2.96068016227229   -1.35827994995347
H           0.44933439096717   -2.09887541994465   -1.43346262025706
H          -0.90911454178341   -2.86806507391235   -1.93730477746046
H           0.47936945859112   -3.71205584115913   -1.73553643553711
