    23
        -45.36401769  Gyration_radius:  2.40222614159 Dipole_moment: 1.949
 S           1.15430186071029    0.64742672606102    0.36493507845781
O           1.01952568970153   -0.79724083695257   -0.18876991053286
O          -0.28395584561261    0.98978983189147    0.81693711692691
O           1.98762490722408    0.64063883141469    1.52087183284725
O           1.52018412695122    1.49533776799756   -0.73059418849581
O          -0.65747473882715   -1.03285145642823   -2.42875575585574
H           0.00204185906845   -1.22612911069549   -1.74897383981427
O           0.31545350768196    1.51430224668646   -3.08487334421821
H          -0.24684081849191   -0.38302224431655   -3.01796083502705
H           0.80785693436655    2.04658489294455   -3.71098836399194
H           0.83295251371932    1.52651197211874   -2.25154321211231
O           1.22737595141065   -1.89361076544628    2.03992047500057
H           0.33557786703791   -1.70071862230546    2.44264123114709
H           1.09522954596417   -1.39355423959125    0.65917166188742
H           1.79630267939523   -1.15782772680340    2.31118837141758
O          -1.73658261876017    1.05898675842048   -1.23514577658190
H          -0.91109679240356    1.05801941849480   -0.00758436950890
H          -1.31749195796478    1.66757818427613   -1.85989264049522
H          -1.57527062930191    0.16851977313592   -1.63890126703706
N          -1.12558793056268   -0.96759315450900    2.90040819604724
H          -1.04208050426490   -0.11193587515790    2.35840769728118
H          -1.22216861941624   -0.71307198287544    3.87523360585341
H          -1.97587696700363   -1.43614037845982    2.61426822650466
