    23
        -45.36742380  Gyration_radius:  2.47510342865 Dipole_moment: 5.013
 S          -0.98834266919453   -0.29714289415211    0.71275158725047
O          -2.16418218817623    0.01072563184511    1.69775475803643
O          -1.20021584489256    0.41259396401533   -0.52713683729007
O           0.23646144079304    0.12017760336824    1.38365908866001
O          -0.97736516307510   -1.75931037583938    0.49945311390741
O           2.13596991825594    2.29222104648277   -1.44549267351260
H           1.83903406253135    3.03209744199924   -1.97819410439491
O           0.98217970944079    2.61330564609844    0.94470436495595
H           0.59780896018801    1.72241980453913    1.09906851589845
H           1.44484146282666    2.84308775263959    1.75238467227541
H           1.74676276635352    2.43681551951471   -0.55294286177424
O          -3.60990837674836   -1.93451082469911    0.61732243834043
H          -2.92409354280378   -0.50777891235067    1.36158390539505
H          -2.67180088382645   -2.08467872687307    0.38514806219869
H          -3.85618074519856   -2.63671214888201    1.22369886035488
O           0.84936024059758    0.07176636449719   -2.13551555298331
H           1.38204627427207    0.89141820175296   -1.98349199496971
H           1.33038050487981   -0.89672674153552   -1.17912779262278
H          -0.02073844412811    0.25493433904176   -1.70579115843830
N           1.48759979994829   -1.53409930515412   -0.27148619690320
H           0.53053885020937   -1.92541183499879   -0.05095342286308
H           1.63749329052209   -0.88724695597536    0.51391631386233
H           2.21235056729051   -2.23794459533449   -0.36131309548708
