    23
        -45.36514200  Gyration_radius:  2.28506314707 Dipole_moment: 7.090
 S          -0.40245008370926   -0.23186945093076   -1.89296683396714
O          -0.28249780355054   -0.04073362533486   -3.29577839088253
O           0.52056261595768   -1.27904986242931   -1.35931646364928
O          -0.19259972573054    0.99147913322472   -1.10532796748376
O          -1.84733787986150   -0.73275368958566   -1.54761090137655
O          -0.68168885751331    0.22111847017221    2.31175436246750
H          -1.02176501257984    0.33031400351593    3.20072444214620
O          -2.23732160564479    1.32388264651089    0.49644270632726
H          -1.52254664691928    1.33027813455893   -0.18229216745008
H          -2.94134769303612    0.79575041310737    0.11259854140391
H          -1.32044620222324    0.68780850005737    1.70877044437454
O           1.35709417332140    1.47156291435403    0.97107592060977
H           0.75845993909391    1.57101405960238    0.19867072082837
H           0.79380329411426    1.03856335860418    1.63856608050561
H           2.24150481026194    0.49294008824347    0.21093112907088
O          -1.07977114492630   -1.95055695533773    0.63492897678969
H          -0.89308800863377   -1.29347965182036    1.32776432877303
H          -1.73865065613568   -1.23953089104626   -0.70514196103258
H          -0.29559304310879   -1.97806269897910    0.05992513468944
N           2.64747207491269   -0.20906659900995   -0.51051037668014
H           3.27829813058743   -0.88095410637058   -0.08596396104792
H           3.11158772094025    0.29518047666205   -1.25924755883339
H           1.74832159438201   -0.71383464776928   -0.92799619558577
