    23
        -45.36401751  Gyration_radius:  2.40257684394 Dipole_moment: 1.949
 S          -0.49399385649070   -0.20692664020468    1.26270646695799
O          -1.03055753830011   -0.81079306246480   -0.05546170183126
O          -1.26633096310514    0.95153548877908    1.60084415404457
O          -0.39928757781790   -1.25792665889248    2.22029982938576
O           0.93031190783906    0.27831220179465    0.87866235161595
O           0.97739914415840    2.30261726594639   -1.06740675673604
H           1.24491581070739    1.69766431636073   -0.36252443188002
O          -1.40789221560229    3.14993219962700    0.13707458214492
H           0.39615045559425    2.95507803834287   -0.64945645239025
H          -1.85733214214073    3.84660303365997    0.61707545526416
H          -1.36526880264592    2.38300260438818    0.74729425368533
O           2.00266530148237   -1.94724338158778    1.20849107825622
H           1.34268068095272   -2.12534228531345    1.89508468010833
H           1.68715574722642   -2.44377367768346    0.40318056392999
H           1.51566644347452   -0.57494421537328    0.97762764571740
O          -1.25673797602622    1.05975299883773   -1.72157584797451
H          -1.16724328219081   -0.06286244461554   -0.76238266550002
H          -1.79597275851292    1.74743181141339   -1.30622982252963
H          -0.34652051668084    1.45157227697930   -1.72389993449127
N           0.76053158784035   -3.04248421264605   -0.88721578182098
H           1.11892917433959   -2.87307762807373   -1.81849919323613
H          -0.06644204215736   -2.46547909542733   -0.76031004789532
H           0.47717339796830   -4.01264892393160   -0.83337844477715
