    23
        -45.36742370  Gyration_radius:  2.47530517473 Dipole_moment: 5.016
 S          -0.50187789768423    0.98170110448320    0.59690789051877
O           0.88188158929502    1.08712284959607    0.15123452120556
O          -0.66283163530586    1.97680419531036    1.79328618078789
O          -1.41512749099137    1.44073138503258   -0.47041715677272
O          -0.83441381995783   -0.35428122201312    1.03331988330920
O           2.05517841870951   -2.76946443023681   -0.11824521486977
H           2.01671493965863   -3.48699385469134    0.51660764875645
O          -3.24640703783540    2.24850343753089    1.25235892556025
H          -1.62900079060641    2.09660991139562    1.90057009526549
H          -3.51919298089001    3.14218572890098    1.03259042880843
H          -2.80289191179241    1.89038805175352    0.45763883218419
O           2.57909739015667   -0.56986843604652    1.30809837139104
H           1.89127955463223    0.04809980950051    0.97609146780265
H           2.29285101780685   -1.96878003719718    0.40283272771236
H           3.40423392316661   -0.08226298984484    1.28291723532157
O          -0.39123690293148   -2.08239641499941   -0.89634033342949
H           0.50261685824972   -2.43851617843663   -0.66642745831327
H          -0.67727118113343   -1.58516917390495   -0.09257392071851
H          -0.15617940051017   -0.94057501673371   -1.74895228818711
N           0.02174940984473    0.08891442710710   -2.15208338376634
H           0.85795523807219    0.44710744939159   -1.67221946249178
H          -0.74369986209041    0.67969138655209   -1.72419537048978
H           0.07657258237525    0.15044801751548   -3.16299959950677
