    23
        -45.36742381  Gyration_radius:  2.47517757437 Dipole_moment: 5.016
 S          -1.21692991352789    0.06790919142396   -0.29586413710180
O          -2.67850463023894    0.60720877600559   -0.15212596726076
O          -0.82424451085742   -0.59163006910486    0.92752470280824
O          -1.21507670584920   -0.87117925884400   -1.43677835001087
O          -0.37585104936756    1.22019260936263   -0.59465287683496
O           2.70212047381606    0.80322837454440    1.99023741603272
H           2.71586801555666    0.68248818803652    2.94131501946006
O          -3.64647502452153   -1.74871022781309   -0.89608321754502
H          -2.71258533266805   -1.69709764676487   -1.18198510273205
H          -3.25245956943833   -0.18333564090771   -0.22286790881735
H          -4.17743340853078   -1.73015279431195   -1.69556805506981
O           1.69022834991019   -1.34266842110683    0.79273988792986
H           2.15995953190100   -0.61141954687285    1.26521078369504
H           0.73470247312293   -1.20049070474929    0.99765126442814
H           1.64410255563633   -0.95181373438764   -0.59657875980383
O           0.65479308543460    2.45108308917646    1.49998392263507
H           0.73922714594114    3.35618240658860    1.19518741116005
H           0.18136700882041    1.97002945098771    0.78608737622662
H           1.97660213980978    1.44547503193928    1.81635494130835
N           1.35021923320236   -0.53088055522678   -1.59197590283554
H           1.19019653602054    0.47445501520703   -1.44513176212227
H           0.36735219980950   -0.88587041071510   -1.75242660404573
H           1.99282140619948   -0.73300313252752   -2.35025408175057
