    23
        -45.36401763  Gyration_radius:  2.40237227955 Dipole_moment: 1.948
 S           1.36556564573305   -0.12720028560407    0.05286823501548
O           1.70896062829808   -0.36192545223208    1.42395559180674
O           0.35102121696563   -1.19817738198665   -0.40962788067328
O           0.54416433401119    1.18961087039912   -0.00298126188529
O           2.41740207784930   -0.07570446530586   -0.90716000807448
O          -1.64270915961652    1.27062486103955    1.75666806786857
H          -0.94689097355408    1.53774985188404    1.14110355956766
O           0.00379972372377   -0.24801025620705    3.44261407711806
H           0.46890222843394   -0.29125425463531    4.27897817209644
H           0.69475733690874   -0.26385135718538    2.74636941723424
H          -1.19513294752941    1.07729667025590    2.59356056342480
O           0.92504745457011    1.56821810444837   -2.43685854666942
H           0.61774355067219    1.48322910750516   -0.99730710718372
H           1.78213858678740    1.12772307758767   -2.33666790510246
H           0.32264158519096    0.88517521450123   -2.84343482731784
O          -1.47121543064476   -1.32624874244350    1.31946275596450
H          -0.40403846933397   -1.30338373707391    0.29490999794604
H          -1.04243606570610   -1.47203587807286    2.17453384478875
H          -1.77810234576245   -0.38552396020266    1.37366314578407
N          -0.56113861546699   -0.52780302739587   -3.16653749918024
H          -0.31152186260253   -1.05616835148049   -2.33503792372326
H          -0.28003113159632   -1.06609067759886   -3.97623004602935
H          -1.56892737712738   -0.43624991025469   -3.18684442229561
