    23
        -45.36514207  Gyration_radius:  2.28492913763 Dipole_moment: 7.082
 S          -0.69034461294502    0.92740611024483   -1.56817672744607
O          -0.98070474041782    2.02083003902689   -2.42782624519284
O          -0.82421444208899    1.24201867239408   -0.13841298757946
O          -1.68589024314269   -0.24978387288348   -1.85273605746925
O           0.67398503262749    0.35582703489345   -1.78117961793195
O          -0.16892919676408   -1.69683537450094    1.71740406677333
H          -0.31299665320603   -2.36871124272798    2.38502029370886
O           0.82132903895969    0.85449121434728    1.88340734842610
H           0.65104093955743   -0.09948468166488    1.98992444388118
H           1.82942887092223    1.16231115311974    0.78427765682712
H           0.07581027377267    1.15671026904343    1.31983584392303
O          -2.40564274842838   -0.52824408014230    0.96758414348101
H          -1.06078934431369   -1.30268488322118    1.52053513262258
H          -1.92985818418626    0.24313535009461    0.57994724556628
H          -2.90002189020887   -0.90882705713056    0.23777909694912
O          -0.01515921204907   -2.08161003542177   -1.02373863502518
H           0.03894994664188   -2.05821275395639   -0.05256681987938
H          -1.19143511312366   -1.06298287887015   -1.58276326256718
H           0.55956894959467   -1.36828501086766   -1.35108194514511
N           2.30956540770171    1.39762821652854   -0.16014697078142
H           2.34093025986869    2.40389671073221   -0.28976256611560
H           1.62620839906188    0.96384158395698   -0.92350783770968
H           3.23916924216673    0.99756552700580   -0.23381561931430
