    23
        -45.36514205  Gyration_radius:  2.28490844351 Dipole_moment: 7.083
 S          -1.05932159700283    1.49768337220419   -0.65647589693580
O          -0.91493070047464    2.23156569022982    0.72129056061137
O           0.31867462312806    1.45907420591859   -1.23356276940928
O          -1.45234623385655    0.11536919761643   -0.34662563230027
O          -1.99128482755043    2.19112444670186   -1.47464498029271
O           0.98905714944916   -1.28380675751037    1.79692087681139
H           1.32690949548094   -1.76109533805742    2.55582996033825
O          -1.37531444430505   -0.21843703156131    2.24945385488451
H          -1.56411429513267   -0.10876035263246    1.28818383401756
H           0.09156942968370   -0.94316776483487    2.05774012287542
H          -1.41697869950567    0.66852045086084    2.61473152391458
O           1.51448186509332    1.35321455165156    1.12218258284592
H          -0.00582027434300    1.99724151004502    1.03315244776081
H           1.48476064499070    0.41191848053129    1.36661929782362
H           1.43364016957342    1.39099353417314    0.15352893286924
O          -0.12483205485840   -2.15214213292143   -0.55322761945890
H          -0.83465203881581   -1.48301712866219   -0.43861448257170
H           0.42741235921904   -1.41671851434518   -1.76709482960906
H           0.42360321311358   -2.03789524789726    0.24463022362267
N           0.65081311166564   -0.68238870438065   -2.53428208902522
H          -0.03047995331505   -0.74848548793200   -3.28383019262828
H           1.59364890313362   -0.77473139907064   -2.89784475349930
H           0.51550413462904    0.29394040987289   -2.01806096264440
