    23
        -45.36514205  Gyration_radius:  2.28503388787 Dipole_moment: 7.087
 S           0.42437099118104    1.84961740956508   -0.44299378155627
O           1.61133150144369    1.84589244103608    0.58109736733872
O           0.81993561369311    0.88636897678588   -1.51495250749039
O          -0.73106092024001    1.27961253320092    0.26498159572002
O           0.21008124650277    3.16885215008996   -0.92518777396686
O           0.15621394120195   -1.93387800519248    1.44708499455420
H           0.23665936131935   -2.65050266964738    2.07789457824948
O           2.22215526640411   -0.65283182660659    0.11440155581254
H           1.97778958484032    0.92837217092596    0.53252200690397
H           1.56063656164801   -1.23370691316185    0.52868471186170
H           1.83462403271290   -0.34346776734784   -0.72253441064745
O           0.05715397659986    0.42523854381974    2.61139936015351
H          -0.32147504066672    0.85844953449352    1.81098250471271
H           0.10266014884469   -1.09625612570779    1.98090647829036
H           0.88067543078022    0.88908683809228    2.78028243001682
O          -1.97395015615438   -1.02631842593641   -0.02184849373751
H          -1.31317249183473   -1.57253155108544    0.44225722045010
H          -1.73600106690427   -0.11014505483587    0.24046778222238
H          -1.60658572445235   -0.74938474867688   -1.47325561815183
N          -1.22103631115511   -0.31935374110478   -2.39221417209047
H          -1.88885461022327    0.34594864817594   -2.76863621096204
H          -0.98905285624765   -1.02470984185422   -3.08380713025359
H          -0.31309849929214    0.23564743497199   -2.06753250742871
