    23
        -45.35897726  Gyration_radius:  2.43191525828 Dipole_moment: 3.205
 S          -0.36718876866032    0.85504299042759    0.18181676962193
O           0.45032895707264    0.10393778891359    1.15966971209855
O          -0.05714376483882    2.35069624026353    0.37830588670017
O          -0.04291544549115    0.46997540795489   -1.17706810220268
O          -1.79339636827553    0.66378046697878    0.47337927944608
O          -1.68785663204667   -2.97467969592314    0.58484974762901
H          -2.46012651112792   -3.54331471178156    0.58960518401112
O          -1.43956280673879   -1.03491840445784    2.19765392339683
H          -0.46908983447938   -0.69063128584750    1.96817857958664
H          -1.87282564721839   -0.30207359395460    1.58758646845795
H          -1.54451121076749   -1.90945217454005    1.65713336079086
O           2.42256476755571    2.00660154047249    0.82153022135626
H           2.17732609118275    1.17494602651897    1.24712395496632
H           2.70776053138982    1.75655549684111   -0.09792160768558
H           0.94004788493880    2.39802459020388    0.56570778081337
O          -1.93913514055512   -1.35802586468062   -1.46344292735080
H          -2.64447856838320   -0.75489397461380   -1.20921961224249
H          -1.15064100473036   -0.77828225715312   -1.51819226026681
H          -1.72554838105983   -2.44664519802652   -0.26051948195372
N           2.70324174752981    1.11481908261853   -1.68147698821804
H           1.72558427298510    0.82089802910550   -1.65861558045604
H           3.26271062823421    0.30133546341842   -1.90517054332415
H           2.80485521352202    1.77630402729973   -2.44091378519475
