    23
        -45.35897727  Gyration_radius:  2.43192743366 Dipole_moment: 3.205
 S           0.26996648494288    0.90043939399800    0.12358806719615
O           0.19228706819250    0.33414070252151   -1.20804009059317
O          -0.63319269032953    0.19387507068424    1.05835569025810
O           1.64291264234458    0.87635739872411    0.64328678749765
O          -0.17662475714011    2.37367031231307    0.08060601592117
O           1.78992129621696   -2.71958073855087    1.19996413421816
H           2.59168903143834   -3.21019980822366    1.39032078038271
O          -2.66289098732501    1.85480859437189    0.19501341444168
H          -2.78102373240614    1.47610796119960   -0.71704429245334
H          -2.42658497804196    1.10348289962548    0.75413215815376
H          -1.19160433924782    2.34981729878612    0.11200226180207
O           1.14922765905939   -0.63920360681234    2.49886609239830
H           1.61755709591057    0.05587052461340    1.87074784947312
H           0.20405334873702   -0.41457322872045    2.08753002441741
H           1.40192505888431   -1.55639649634053    2.09530507582309
O           2.23959885464731   -1.33168075511106   -0.97808583750072
H           1.42887158533497   -0.83732905575699   -1.22130386007663
H           2.84985352472471   -0.64086659892162   -0.70188334988754
H           1.92076122851762   -2.29056443023693    0.30905823860446
N          -2.48054316792902    0.66087072835244   -2.18840136562004
H          -1.49962583226067    0.46301346457945   -1.98499609974545
H          -2.51015688030895    1.21895979081417   -3.03238075178893
H          -2.93637750397328   -0.22101941191808   -2.38664095290767
