    23
        -45.35897756  Gyration_radius:  2.43194253394 Dipole_moment: 3.204
 S          -0.47719938115474   -0.07670322706753   -0.81492055895027
O          -1.84535689758134    0.08863558251374   -1.50232105553607
O          -0.56352279864629   -1.12135963597009    0.18564783890035
O           0.49852028460508   -0.40815417131354   -1.86104538442234
O          -0.13270115303943    1.22436118846162   -0.20119561895635
O           3.46381890377131    0.08659025462151    0.19359047997618
H           4.34972707138478   -0.18579313860252   -0.05287458301741
O           1.91847377240329   -2.01618950798240   -0.05625820119250
H           1.00598328054838   -1.78289451581648    0.21531297040066
H           1.84342255411987   -2.14823837751676   -1.00644900640696
H           2.90541296227960   -0.73959090925559    0.21584377750211
O           2.00114009474254    1.45511528467332   -1.35980488615463
H           1.15669729214016    1.63359385980214   -0.75453692828393
H           2.68833980828465    1.00866349258257   -0.73012959910870
H           1.52514233795492    0.65016700234717   -1.83309066043429
O          -2.82269322136829    1.58502372432956    0.30573727344104
H          -2.92553165277805    0.90584398108673    1.02502117151006
H          -1.93213543373621    1.94177882057799    0.41790896305038
H          -2.39007265646541    0.68087970667937   -0.88236513359920
N          -2.66091954952102   -0.45658130417860    2.02177481985983
H          -1.88770088399089   -0.82752679574169    1.46745756001244
H          -3.38998236572274   -1.15867200629045    2.03586136097587
H          -2.32886238572532   -0.33894929765296    2.97083539091005
