    23
        -45.35897564  Gyration_radius:  2.431712705 Dipole_moment: 3.200
 S          -0.57093026910511    0.69063986950772   -0.31765099061414
O          -0.65264632699122    2.17192250265824   -0.73061404186620
O          -1.87344151165672    0.08243970428716   -0.61154050206118
O           0.47768890510017    0.06005204250068   -1.15105319871282
O          -0.24261786095723    0.60040954452370    1.09089234045011
O          -0.79647824271005   -3.37142639705363   -0.17371920459857
H          -1.38711342379581   -4.12442713115007   -0.11128640756765
O          -1.59950886953278   -1.61717924208729    1.60140528585090
H          -0.99839914382518   -0.84306119554156    1.58786607953560
H          -2.42181815428047   -1.26959715656314    1.24239562608525
H          -1.02744315281448   -2.76210322880862    0.58134608620709
O           1.85353120561120    2.45331500556986   -1.05165783554073
H           1.86622386106116    1.53620235269305   -1.35427280636662
H           0.30726301560722    2.46021205807646   -0.89638083402897
H           2.13412759407540    2.41895641129026   -0.09795301274552
O          -0.96920851184066   -1.67886218304528   -2.05330817632582
H          -1.62378626247896   -1.02012676196070   -1.57658303420832
H          -0.14289961423906   -1.04902748222703   -1.84741067083897
H          -0.87217849551443   -2.46565632175208   -1.39077673260400
N           2.19730027260439    2.02611495759706    1.56301859728334
H           2.93546476419384    1.43306229328635    1.92108499105160
H           1.33512093269534    1.47894260469541    1.56005067621398
H           2.07174929890290    2.78919778386223    2.21614777539237
