    23
        -45.35897555  Gyration_radius:  2.431593293 Dipole_moment: 3.201
 S           0.12433526839870    0.82650436013070    0.45360444391305
O          -1.09477051006657    1.62000619618203    0.26179910348306
O          -0.20352776376403   -0.43815370894495    1.15009155533494
O           0.80069068994824    0.57058326415123   -0.80213893815949
O           1.05393127472721    1.63049347802208    1.38136188770647
O          -3.05307151113168   -1.04390561871854   -1.27109443078086
H          -3.89189041485824   -0.91793093047010   -1.71860560880253
O          -1.34900887091043    0.63140005119388   -2.34957678695578
H          -2.38025786535699   -0.49615306081277   -1.76300867850977
H          -1.62763334025193    1.49641036572334   -2.03329330031597
H          -0.46843053188308    0.50933043488559   -1.93674511147197
O          -2.61706259721852   -0.12832374079463    1.05250572054300
H          -1.64714692465682   -0.50610337065004    1.24983029545442
H          -2.22677632894001    0.79398541287890    0.75876894397813
H          -2.89986537917638   -0.57900434953790    0.16687838017886
O           2.34499048987830   -0.39471882559204    2.21491629744326
H           2.85147617030001   -0.60463755005980    1.38491829475870
H           1.66966100898658    0.94463382245498    1.80856886078760
H           1.51831777903136   -0.88862208764730    2.14080308177149
N           3.27163914921239   -0.77482673371085   -0.26174478657432
H           2.43329875597910   -0.31312397132953   -0.61783870610747
H           3.31948982103790   -1.69282589969361   -0.68577770357910
H           4.07161165105952   -0.24501753845018   -0.58422283490418
