    23
        -45.35897729  Gyration_radius:  2.43194350276 Dipole_moment: 3.204
 S          -0.34102753129309    0.78504423318268   -0.40723670741070
O          -1.58920693003750    1.12832332555818    0.28558823854671
O           0.80111476006047    0.85695240366812    0.48177100149057
O          -0.45883874312019   -0.55695177446327   -1.01858765236626
O          -0.16191674633935    1.79694534943097   -1.55425442911623
O          -1.80290623868068   -1.93022385552675    2.25065716881612
H          -2.40169016173542   -2.06445136422641    2.98769697925495
O          -0.49036931851043    0.28904021198423    2.72429748442808
H           0.15502304707203    0.44502083465059    2.00321603971891
H          -1.14189721347573    0.98571654821007    2.59743429162506
H          -1.22127956769221   -1.15631144981134    2.49081548745086
O           1.31888053772816    0.28053747579143   -2.95831321205353
H           0.80079174929854   -0.45763428514965   -2.61243521230633
H           0.43817765410749    1.33516477988360   -2.23132167064644
H           2.14022164526688    0.30969677674876   -2.39813947422870
O          -2.61047808896058   -1.07655513648449    0.00466480497507
H          -1.72749236362055   -1.12363034434323   -0.57051399707085
H          -2.36884677006130   -1.53650971276331    0.89802426088865
H          -2.46521772320382   -0.05646320559562    0.19316483576123
N           3.18174861317468    0.40070228578312   -1.04667370325600
H           3.81324141638209    1.19102501500021   -1.01117515296381
H           3.69439179270046   -0.41664321099004   -0.74014037729131
H           2.43757616143163    0.57120510936444   -0.36853901454570
