    23
        -45.35897543  Gyration_radius:  2.43162118926 Dipole_moment: 3.201
 S           0.37425784699684   -0.86764018046525    0.10810396716351
O           0.53877783661453   -0.14846198432199   -1.13913275701874
O          -0.83429386476989   -0.41108316090239    0.83136957767871
O           0.19010074032695   -2.36790860491069   -0.18626722677274
O           1.55233545586843   -0.73296059157017    0.97210363919120
O           0.97309464444936    2.74998996902564    1.87558728427105
H           1.61157589569288    3.31432456948073    2.31560640108748
O           2.16906927920043    1.72763922536161   -0.22153170071452
H           1.38927664727386    2.46121828027208    1.01645654664575
H           2.79372215412038    1.09268733207870    0.14254459002973
H           1.53474747029367    1.16718390655833   -0.71577479644948
O           0.37261487041453    0.45196937147652    2.76222837607247
H           0.56618718565552    1.43895571652346    2.52605087005780
H          -0.38843622448723    0.15692752979555    2.08642733504350
H           1.09075148960014   -0.08581844881967    2.22945069051033
O          -2.29552517164283   -2.19396736154282   -0.69094451983967
H          -2.24108301231206   -1.71763613011308   -1.56251025220777
H          -0.79121380569894   -2.47879319155487   -0.42445896780056
H          -2.33098797061063   -1.49819268249319   -0.02202170228062
N          -1.71861694085989   -0.68606175707416   -2.81942403885535
H          -2.24438562966313    0.14799297882380   -3.04906522000442
H          -1.44886282644837   -1.12870812802194   -3.68887169837373
H          -0.86310610067710   -0.39165665680356   -2.34592641770865
