    23
        -45.35897548  Gyration_radius:  2.431721913 Dipole_moment: 3.199
 S           0.06882160560580    0.91399876699195    0.25288184128154
O          -0.09212593361110    0.54836714507250   -1.14008303648359
O           1.01077566913604    2.12769114568154    0.35827492588272
O          -1.20839916422220    1.29739395478724    0.86469525031050
O           0.68544070495878   -0.18818654550426    1.02555579214552
O          -2.60406626176609   -2.06692711130451    0.98862212335878
H          -3.52218959487151   -2.27142641625833    1.17565139664697
O          -1.23432647849091   -0.54265390070568    2.48127409942408
H          -1.80534888312380   -1.24893199369266    1.98886459242010
H          -0.28060538198708   -0.59938749142361    2.02324693368410
H          -1.44779264155978    0.35122915778176    1.98681014945332
O           3.15100294812597    0.76253860488950    0.22060707945872
H           3.10205430940209    0.49845318610881   -0.73717100922231
H           1.95090886957703    1.74585751836659    0.30954374358142
H           2.67956988700933    0.06952064511798    0.70052144886347
O          -2.58989257940089   -0.31750555352459   -0.96400662134884
H          -2.59780509244994   -1.49841714440361    0.16918069579052
H          -2.90829933817164    0.49632565659154   -0.56126972926454
H          -1.66328964765414   -0.10679772727234   -1.20439313670848
N           2.49398517414131    0.05507020855452   -2.27037469218558
H           1.51259264031753    0.18594808879387   -2.02037841078961
H           2.60026479322448   -0.89305628784328   -2.60886866021894
H           2.69872438651569    0.68089607329203   -3.03918477589673
