    23
        -45.35897738  Gyration_radius:  2.4318795981 Dipole_moment: 3.208
 S          -0.57996240207843    0.73316854457388    0.15847426060766
O          -0.05152579562754    1.46466122996327    1.31673302399770
O           0.34569156593653    0.75653667908465   -0.95620354601355
O          -0.91116629207064   -0.65457788116939    0.54954858118812
O          -1.89557774473302    1.41945226692311   -0.25381166529476
O           2.47949710377709   -0.99531750790139    2.21226762910287
H           3.19081705903115   -0.84631294689339    2.83804048739240
O           0.06094992740376   -0.49171577310282    2.78030383192390
H           0.04571593944317    0.49315356626778    2.42300825902381
H          -0.43653545119671   -0.84066194807100    1.91846062094700
H           1.04254836913076   -0.79063685052607    2.65807451998416
O           2.57164479433333    0.95794428024062    0.46625667054839
H           2.26503777076606    1.73019646160397    0.95156238360857
H           2.59251148990762   -0.32332633897582    1.48390240420098
H           1.87527225595496    0.82101245915658   -0.20990862249865
O          -2.86468069253812   -0.63167161147446   -1.40161523921229
H          -2.42509833339558    0.71130006347760   -0.75367671290016
H          -2.27158274096612   -0.65342890739788   -2.19974558873236
H          -2.40886631109451   -1.15674066984167   -0.73116444087745
N          -0.90429042754311   -0.49360239878268   -3.21191808532904
H          -0.32328280128752   -0.03358879220548   -2.50941859263931
H          -0.99095544383056    0.13897126734776   -3.99740207813672
H          -0.40616182041945   -1.31481517281518   -3.53176809045138
