    23
        -45.35897755  Gyration_radius:  2.43197086562 Dipole_moment: 3.205
 S           0.07695528654877   -0.93624808492096   -0.12365002296806
O           0.56210430776914   -2.26028093219523    0.49543970190065
O          -0.37480868696120   -1.23367443595978   -1.48880969688539
O          -0.99303727639455   -0.38905294163272    0.68604243310103
O           1.23698299830982   -0.01943646563543   -0.16728482691477
O          -0.63075903386986    2.22993232217508   -2.58297033726965
H          -1.06024999119413    2.51670402941677   -3.39110371018524
O           2.10023387819393   -1.15963057910041    2.19444321424259
H           1.40924141757016   -0.77823697597745    2.79962412845106
H           1.20928706698889   -1.99377290296134    1.23153515637469
H           2.26026370433156   -0.47804111126335    1.52902040791455
O           1.10688175564887    0.38443880701811   -2.56916184989149
H           0.44879682654712   -0.41262734002818   -2.39557637680550
H           0.48909502467636    1.20780723997804   -2.66103892939838
H           1.41215048103030    0.38751450821862   -1.56015361768383
O          -2.35479881279774    0.74070258544392   -1.28595832429293
H          -2.40480147530552   -0.07188436032151   -1.79893214500433
H          -1.95999012003331    0.45148947407543   -0.43666599581138
H          -1.32603875130571    1.76819108542778   -2.03683019595631
N          -0.04261890071860   -0.08214872136498    3.37209998722718
H          -0.58158820074447   -0.63005773649213    4.03084609217989
H          -0.52443274628998   -0.12169819295903    2.47265374396459
H          -0.05886875188246    0.88001070892984    3.68643116394713
