    23
        -45.35897530  Gyration_radius:  2.4316422167 Dipole_moment: 3.198
 S           0.56342721274488    0.66748373680108   -0.37658962959867
O           0.63427332246921    1.85584362405585   -1.35342277020480
O           1.85824398531214    0.58668504551165    0.30846717980385
O          -0.50551154085347    0.96812510849725    0.60287627042269
O           0.26976416368916   -0.54528144593782   -1.11341591141991
O           0.79166355039077   -1.77163927203151    2.87443611035755
H           1.38322864069036   -2.24218954580773    3.46467984045344
O           0.91794758133600    0.74159824617092    2.56529850678047
H           0.83712419058661   -0.25382014373892    2.82965211258183
H           1.58498741865357    0.74158512422684    1.76317419020924
H           0.09731992652279    0.91646372610087    1.91754516324515
O           1.63940190549207   -2.20544825206244    0.43177702463851
H           1.03793186218047   -1.76376338783565   -0.20376113345453
H           2.45206417154531   -1.69464102705330    0.36425658802859
H           1.04164960398195   -2.03686093886048    1.94606043163781
O          -1.87916236006577    2.22856224216942   -1.43586724886336
H          -1.89969805150922    1.95181989030932   -0.51078119927645
H          -0.32962578803539    2.13682092177234   -1.50845599477216
H          -2.13605758381973    1.42125351874198   -1.95717853134252
N          -2.15836056242211   -0.16634486805520   -2.58612478628602
H          -1.29631555160724   -0.45950720568443   -2.12385005321976
H          -2.01700126073318   -0.26238874227442   -3.58383900563586
H          -2.88729483658308   -0.81435635505287   -2.31493717413447
