    23
        -45.35897511  Gyration_radius:  2.43158556569 Dipole_moment: 3.199
 S           0.14817003433730   -0.49212821319727   -0.80092689229379
O          -0.02007781074437   -1.91377913975127   -0.48057758187316
O           0.40556148639797   -0.39005416998444   -2.31575425896952
O          -1.10861985904351    0.23868844039575   -0.51963477211250
O           1.26291432182709    0.09163251323302   -0.08226194667374
O          -1.31117035254099   -1.39967513992085    2.88909087229410
H          -1.40914468788979   -2.08907606136815    3.54854329864549
O           1.16294749084732   -1.50682373586639    2.02834660829010
H          -0.34262663741406   -1.36287691512784    2.65400717370834
H           1.19967383494733   -2.30933984431605    1.49870060016138
H           1.30976768103808   -0.79296765066821    1.37291055281983
O          -2.23144784550488   -1.64413341296026    0.53933034093326
H          -1.99345565645408   -1.55673386553060    1.54080581275744
H          -2.00609557191549   -0.69459346374161    0.12441533200333
H          -1.37986294288545   -2.06399503848692    0.10796783148044
O          -0.40738426801358    2.01007903412146   -2.52024704299226
H           0.12976104111526    0.55281358772862   -2.57448359966864
H          -1.04765036935150    1.79881215455441   -1.82871360030985
H           0.34314118462092    2.46580634930156   -2.05276032424026
N           1.62480214883796    2.79082640849080   -0.97189266832771
H           2.53895090168864    2.93725561670349   -1.38121198113414
H           1.62325172328125    1.86218577863116   -0.54716337003234
H           1.50859416271185    3.46807677810913   -0.22849038448753
