    23
        -45.35897502  Gyration_radius:  2.43152629586 Dipole_moment: 3.200
 S          -0.20952567667545    0.82581948160500   -0.42434837486615
O           0.36645447229569    2.14263489638757   -0.97700120748942
O           0.20664277645476    0.72620663782462    0.99330897743037
O          -1.67111004775037    0.91796637229880   -0.50890692427709
O           0.30376967312476   -0.28685537065967   -1.19787008945269
O          -2.36139031978448   -1.99841670040099    1.56580304025205
H          -3.21908154527628   -2.41906681718474    1.65035126056987
O          -2.05110944214520    0.49885554815974    1.87510861644053
H          -2.22257823839685   -0.51984269979711    1.88625161868631
H          -0.99904186994276    0.59464603432128    1.78007243561026
H          -2.19226073883211    0.77288535312470    0.87903340412787
O          -1.83515271206726   -1.83765361010184   -0.99763236939031
H          -2.11037298758426   -2.04966643119241    0.60196776447001
H          -2.43337649631461   -1.15863888844472   -1.32473182422833
H          -0.94784958049103   -1.44025429805649   -1.12201947054225
O           2.56835375896176    1.97095781714226    0.28209973404154
H           1.28991210735036    2.22960684567006   -0.56265212755202
H           2.06997347771245    1.55144074982334    0.99510939318556
H           2.97785048438156    1.22158370105413   -0.22812382929914
N           3.16695254435356   -0.21119866451589   -1.13797583216900
H           2.16615494097781   -0.38081685756946   -1.24941653764218
H           3.57232105274176   -1.03657860911671   -0.71465453789675
H           3.56446436695190   -0.11361446043767   -2.06377313000572
