    23
        -45.35897554  Gyration_radius:  2.43160739548 Dipole_moment: 3.200
 S          -0.93981071251227    0.11256415673411    0.09142886943623
O          -0.18620175061875    0.53996209895617   -1.10911672367527
O          -2.32200497280128   -0.37057909871034   -0.38556713594887
O          -0.26097630709392   -0.96929338528495    0.77602876053308
O          -1.15991786665286    1.26181125953776    0.97656570073876
O           2.32139848478917    2.33319020771668    1.09283279014553
H           2.67429805654072    2.97886896049058    1.70787459861601
O           0.25688161763168    2.79527201030545   -0.30417482294204
H           1.15764804641196    2.71885493179895    0.19605908789985
H           0.20245825640099    1.91940289717728   -0.89756164402142
H          -0.44439534694384    2.41461050040303    0.36863193528283
O           1.06419269324637    0.52584148440728    2.51622573703180
H           0.71511422281327   -0.17060958934014    1.92131930674071
H           1.95176591417626    1.58660397075148    1.64115755761976
H           0.27138165575101    0.97304258627059    2.82827685379173
O          -1.45339305550798   -1.48223765445491   -2.50053422505821
H          -0.98718775737829   -2.25660631027813   -2.08518617197387
H          -2.15051427175397   -0.86514070150677   -1.25619448182275
H          -0.79335255982135   -0.77818008883074   -2.53899296697385
N          -0.10680675519674   -3.22299098704081   -0.98617309785698
H          -0.58294545072168   -4.03322011725734   -0.61011187740628
H          -0.07377051512049   -2.51640657611395   -0.24968948199212
H           0.84613835412242   -3.49476056572623   -1.19309853805262
