    23
        -45.35897518  Gyration_radius:  2.4315995555 Dipole_moment: 3.198
 S          -0.38298192677748    0.86389453683924   -0.10968155401104
O           0.59413049095575    0.28472729843603   -1.05963234113650
O          -0.22494620221980    0.29414406731902    1.21328488395267
O          -0.11712869387178    2.37946320539967   -0.04962048878593
O          -1.74519174410319    0.67868274765453   -0.62175170379271
O          -1.44544905682090   -2.90275112340582   -1.22871287116340
H          -2.18039111177002   -3.48787762547467   -1.42172305293732
O          -2.05234089662926   -1.60885762793901    0.96942339735954
H          -1.62339378980916   -2.50472252485386   -0.33172524033658
H          -1.30736912045421   -1.02157316550509    1.21607742612483
H          -2.74439362288991   -0.99490300318404    0.70472776644726
O           2.41304702520032    2.16915986374934   -0.18046357357887
H           2.58190459835481    1.79458195916051    0.72547347339947
H           2.26939213194594    1.40280121257349   -0.75041615763493
H           0.89324847824063    2.47904370805634   -0.08492326307630
O          -1.07681587653569   -0.74181373570132   -2.50258833973667
H          -1.20996132583937   -1.68839984384165   -2.11066502796765
H          -1.62931624598001   -0.12180048552833   -1.87154509180512
H          -0.16485457122265   -0.40136282849391   -2.08231533734234
N           2.39392935131198    0.92922855538548    2.18576754934730
H           2.95456444913166    0.10646930455863    2.36899088607071
H           1.44284040463097    0.61665743773286    1.98448193502785
H           2.36147726371984    1.47520805697870    3.03753669775782
