    23
        -45.35897628  Gyration_radius:  2.43173870476 Dipole_moment: 3.203
 S          -0.12093355919845   -0.89131478121273   -0.30433751882466
O           0.79098496805172    0.06967879531925   -0.96420921572124
O           0.64253515100952   -1.76719131289836    0.59238549954066
O          -1.18602699219174   -0.20368591868948    0.39754746885045
O          -0.72473521296876   -1.77997307860095   -1.40765691122754
O           2.34395991574521    0.90490415300818    2.39052696637683
H           2.83938311268586    0.78919260808547    3.20349485629465
O          -0.95259810735845    0.09810565360100   -3.10599255139107
H          -0.14532257392917    0.46889660523393   -2.72690251445232
H          -0.89265866222348   -1.15891181603743   -2.19375237250939
H          -1.69768386382136    0.60000673799616   -2.67901629545987
O           2.74897304700046   -0.54399818160921    0.35007289319116
H           2.04285629135449   -1.28219900652731    0.57219170923160
H           2.10113390010810   -0.09938246363385   -0.35754091377641
H           2.72115252863583    0.08813453824463    1.16689348777614
O          -0.02623354843846   -0.14588488923200    2.77899339893525
H           1.40845405608281    0.61609565882460    2.58082328267615
H          -0.57345659120577   -0.01626259587713    1.97618132117012
H           0.13055230981659   -1.09518693969856    2.79314406647916
N          -2.73548611528292    1.27790182177577   -1.50367585176978
H          -2.72611083290360    2.27458619105778   -1.32665220512667
H          -2.28666892240451    0.81855865504124   -0.70976438748719
H          -3.70207031806803    0.97792956597469   -1.52275421270642
