    23
        -45.35897521  Gyration_radius:  2.43154933305 Dipole_moment: 3.199
 S          -0.35988344324666    0.75681040354397   -0.45050654164204
O           1.01278246754117    0.76397890586299    0.01379655976724
O          -1.18581730981114   -0.18219841534885    0.34237594430679
O          -0.96785876962236    2.16041515953334   -0.27301819647221
O          -0.44973014784502    0.41813479470292   -1.87507484539553
O           0.37311280570961   -3.11101870009721   -1.48521980028484
H           0.59243307479238   -3.70419768990522   -2.20616897284930
O          -1.54478069685921    1.84636405899578    2.18292389419718
H          -1.71638207613451    0.91963712164464    1.97192264629314
H          -0.62412707110628    1.86374625070849    2.55922235740100
H          -1.25630974938704    2.20980800457304    0.69980720410035
O           1.94701556978869   -1.02552241807061   -1.70230708172442
H           1.77272078928979   -0.40916907120056   -0.96036829824677
H           1.05224353870405   -2.38077688781167   -1.49773262373102
H           1.61483313269214   -0.55152391448023   -2.47101812888497
O          -1.70360441931164   -1.65714501085918   -1.52430150628906
H          -1.26956989204861   -0.82067631779201   -1.97139564384270
H          -0.94808806510097   -2.36172388672349   -1.51405883716197
H          -1.66070137419696   -1.20124793954393   -0.56807117615685
N           1.06315048457699    1.66469290889913    2.73300618983545
H           1.61213421831722    2.50778558657770    2.84457209867564
H           1.21292135932086    1.32378954157544    1.78215525420799
H           1.43350557385255    0.97003751531356    3.36945948386875
