    23
        -45.35897566  Gyration_radius:  2.43164402507 Dipole_moment: 3.202
 S          -0.89812087801197   -0.31166434407653   -0.02311107727127
O           0.17895278946173   -1.20638146429283    0.35014139967924
O          -1.27127001705425   -0.46991199956728   -1.43326877595890
O          -2.14590931996134   -0.63244165943463    0.82040134640094
O          -0.53729659644245    1.09869936443882    0.24605911819649
O           1.71069782774301    1.11502536009290   -2.80336635000693
H           1.97069937130263    1.08535362223816   -3.72601407174844
O          -1.40344341707979    0.71934721314058    2.84144981299265
H          -0.99361424568823    1.33192852976586    2.21726097875310
H          -2.00449152676062   -0.15482127158134    1.70578209207997
H          -0.66507865073274    0.13129198684515    3.15524483868613
O          -0.62203526569115    1.80001677344617   -2.08470712981373
H          -0.53081625466246    1.78648098015055   -1.02959561078065
H           0.33914615384217    1.65323672719207   -2.43401954283994
H          -1.04523896464995    0.84574558931782   -2.08674701304440
O           1.31766012503123   -1.36114939037867   -2.03703229097844
H           1.68137399852429    0.17098813112195   -2.48292340242588
H           1.07903633465626   -1.37279215971263   -1.08639520841548
H           0.50291241411250   -1.62356996413907   -2.47658261750480
N           0.64525419209643   -0.96418703444064    3.16659616792520
H           1.58011191097437   -0.64183661896856    3.38326381697135
H           0.60981892697914   -1.15899693358393    2.16481959596720
H           0.50165109193094   -1.84036142784551    3.65274395314470
