    23
        -45.35897551  Gyration_radius:  2.43163793241 Dipole_moment: 3.201
 S          -0.31906983768680    0.84431628426834   -0.29988498261239
O           0.08438920006702    2.21752127325296   -0.86820618359162
O          -1.76190159711517    0.88668691787368   -0.03712712774879
O           0.02204194375650   -0.19135888190930   -1.25432064342588
O           0.41811757883629    0.66187050112566    0.97106231051839
O          -1.89085950922912   -2.18981767959882    1.91251670117293
H          -2.69677764827263   -2.64691171020255    2.16014089310874
O          -1.56775226485983    0.28977495610330    2.33052257899649
H          -1.71161332843031   -0.73293776663820    2.30346688413634
H          -0.56935295468559    0.43062236666390    2.00511474278860
H          -1.94120151719215    0.62659827781319    1.41607390361230
O           2.52223479651619    2.04199569092705   -0.16854741515023
H           1.07696874166692    2.31045996907962   -0.67294599795216
H           2.21217043691876    1.55463355334310    0.60550139998862
H           2.81695150084768    1.34655757104415   -0.81584613223950
O          -1.97760809177872   -1.83297477904659   -0.68333524075967
H          -1.15237321183094   -1.39408424337616   -0.97850665031539
H          -1.86972528927099   -2.16484164561515    0.91568788251005
H          -2.65012586704795   -1.15684971734349   -0.81168418855196
N           2.81807890684305   -0.01064611039979   -1.85263032995058
H           2.98632021455017    0.16727860709912   -2.83481597460294
H           1.82271041302595   -0.21028143093819   -1.74239718230741
H           3.32837741436526   -0.84761199353446   -1.59983923766912
