    23
        -45.35897697  Gyration_radius:  2.43188160929 Dipole_moment: 3.204
 S          -0.13939263396745    0.85200584527017    0.39216081462609
O          -1.22858776341576    0.16015436805318   -0.26726827911760
O           0.48459532147808    1.84587156048805   -0.49004239677574
O          -0.68103290012405    1.60698837204446    1.62028643669031
O           0.88308550922544   -0.10101143746918    0.87737989270817
O           2.14688812449638   -0.55267130910569   -2.66853039386397
H           2.55355784689516   -0.33711054098888   -3.50990409039842
O          -0.63823394805560   -0.41546580755343    3.16021357760721
H           0.14675647589874   -0.70174404904141    2.67566285884129
H          -0.73687968352324    0.91413705090724    2.36099075984797
H          -1.39315620623539   -0.92589576240939    2.76175848301099
O          -0.30435702516308    0.37397936947977   -2.74116470563297
H          -0.20212128988953    1.32917335354724   -2.68518985971962
H           1.18267858364813   -0.30920873055320   -2.74509252707530
H          -0.76298901992034    0.14360033672768   -1.90610222705808
O           2.66773200185465    0.74330491075928   -0.55308930047213
H           2.59547945359256    0.18128500281388   -1.41723325227430
H           1.90049183046843    1.45011410454067   -0.64119631865024
H           2.12122310831153    0.20027223599536    0.16852297437936
N          -2.50261192217192   -1.56722512135517    1.63152000270073
H          -3.47755486471612   -1.33052996453284    1.76619819139336
H          -2.45681307875175   -2.54330148031399    1.36691700200552
H          -2.15875793039318   -1.01672230681407    0.84320236684020
