    23
        -45.35897674  Gyration_radius:  2.43183448265 Dipole_moment: 3.203
 S          -0.09460308459564    0.84834261172242    0.41404721152480
O           0.03706207157514   -0.41168839747120    1.17862931452229
O           0.51987680259056    0.73353186837068   -0.89329232915445
O          -1.50971456352543    1.22650442219573    0.31671519092725
O           0.61867009863700    1.94956002688080    1.22038665061253
O          -2.68673338644444   -1.98339172204207   -0.93861629111135
H          -3.55849081526880   -2.14073539176806   -1.30608602845100
O          -1.66811402592687    0.05989156294383   -2.22697083288486
H          -0.76058466654927    0.23059877247775   -1.89833273411152
H          -2.25564042864345   -1.28862806782384   -1.50983658350284
H          -2.16835455263743    0.81809714687459   -1.90939650024828
O           2.52893216673030    0.45889318051506    1.98993952983243
H           1.44692812803221    1.50756175309506    1.60829621427831
H           1.88766506673383   -0.26312097506848    2.01036008199816
H           3.00546235155802    0.36207887362108    1.12229572643784
O          -2.35830307388594   -0.84598433564827    1.30294066913122
H          -2.28601743500820    0.13369601759292    0.94254609199520
H          -2.56346729734623   -1.41114919720224    0.46255141884450
H          -1.31056625324022   -0.90844185609977    1.42111566582131
N           3.32004870964677    0.22929389005921   -0.55178736599419
H           3.61115928721719   -0.65510819897997   -0.94917419886487
H           3.89037288113804    0.95545476152415   -0.96661319446223
H           2.35441202925842    0.39474325326324   -0.83971772701735
