    23
        -45.37014339  Gyration_radius:  2.46659206342 Dipole_moment: 3.511
 S          -1.12754216188976    0.75024697641997    0.24019008631454
O           0.23879827407045    1.22702146380954   -0.08662390847881
O          -1.37597449337826    0.81850252080810    1.66677361594225
O          -2.10549258783768    1.74852539416831   -0.47524321027172
O          -1.35725304584271   -0.54801752192248   -0.34414530373498
O           1.68084013015216   -2.64233060445075    0.21078330263393
H           1.70160780056126   -3.40909065935370    0.78462312457621
O          -2.01585635408596    3.34983857592915    1.63670488433751
H          -2.84971804770467    3.47442776242085    2.09543626457143
H          -1.68701018691545    2.46399122819605    1.90312697173094
H          -2.12349728045775    2.53427656332428    0.10910309219361
O           1.03957962532917   -0.53561566131377    1.74553886329656
H           0.20342061388470   -0.53120884534566    2.22371573242640
H           1.45721372032922   -1.87964108472645    0.79155022440613
H           0.94812435820159    0.22459399318576    1.14482034969140
O           0.02980611678866   -2.18146235882968   -1.85421208644791
H          -0.68218607847634   -1.70489753785055   -1.37207204163541
H           0.90521994372476   -1.00543419152079   -2.00852609729050
H           0.55230550544532   -2.61467337742072   -1.14732521864074
N           1.52199654445885   -0.09688584188033   -1.87973610053207
H           0.97573312612830    0.51133219977863   -1.16588085821343
H           1.65641447208374    0.40806133033928   -2.74882662932464
H           2.41347000545935   -0.36156031364086   -1.46977503754911
