    23
        -45.37367508  Gyration_radius:  2.49210025665 Dipole_moment: 4.205
 S          -0.91865043944192   -0.14793173851518    0.97194530626153
O          -0.75989812372024    0.76896051847776   -0.17738698039209
O          -0.56376986578991    0.50419225914269    2.21604200167325
O          -2.44462512676325   -0.51313613675770    1.02689783113523
O          -0.21129212735946   -1.38453235425042    0.72878136544860
O           2.91853582537389    0.39415372996585   -1.32609260742015
H           3.44050576361656    1.12519055042164   -1.66134853133848
O          -2.88953162588404    1.66234935479902    2.47898674736933
H          -3.22854351296122    1.50774341982392    3.36351999050398
H          -1.93113110586827    1.45254479252981    2.51303392204528
H          -2.86583626907322    0.27232140083659    1.43076930411931
O           1.64817225055498    1.41994171558157    0.76102238048615
H           0.74466033560059    1.39204871080940    0.39419629233377
H           1.53351239363500    1.08363148537823    1.65471305623413
H           2.55917667789154    0.70092403239163   -0.45852221473498
O           0.02305443571158   -2.81921108933027   -1.41731250294775
H           0.34455882034670   -1.35979994812170   -2.04883655509774
H           0.75439532510962   -3.41090826500914   -1.22932427429038
H          -0.19295515410974   -2.38975831358131   -0.55105236071845
N           0.48034338525457   -0.32110840858897   -2.17893921798506
H          -0.09771988737110    0.14622842206180   -1.40439428112537
H           0.17413712100601   -0.01213871645701   -3.09465394453925
H           1.48290089423887   -0.07170541157653   -1.99204469703483
