    23
        -45.37367566  Gyration_radius:  2.49345913436 Dipole_moment: 4.202
 S           0.12193040484653   -1.25994213011804    0.46927170225262
O           0.00547664474382   -1.25907479095651   -0.97119300589255
O           0.52884630029317    0.07712595210362    0.95259882017501
O          -1.06233787954482   -1.72875343870925    1.16002694508280
O           1.30885531383828   -2.22622291915452    0.81848994259921
O          -1.45356506727925    2.63471210229955   -1.17324597566485
H          -1.78155800986524    3.46360923793452   -0.82043765071540
O           0.27095273224819   -2.59058548864231    3.23277676229340
H           0.00371422504945   -3.48944410856648    3.43738629171871
H           1.20413970281110   -2.39882702104993    1.77592661297825
H          -0.42454144812319   -2.22603734505560    2.64349967370584
O          -2.00416241565076    0.87067942235356    0.72462625284826
H          -2.40799873803254   -0.00079208512141    0.67472316822152
H          -1.08747386513835    0.67627193552019    0.99639506317915
H          -1.78600553618363    1.93540346481326   -0.55947472761710
O           1.44968949875128   -0.13525943613568   -2.80758818845473
H           0.90081466962179   -0.16540447012306   -3.59377703372414
H           1.29751290215472    1.12559533693434   -1.79814322679339
H           0.98949816719887   -0.71263981958879   -2.14721809416318
N           1.06336322022012    1.73621454988655   -0.96954912723043
H           1.80216392991821    2.40126647289240   -0.77038081923291
H           0.92139734824244    1.06387924920050   -0.14477629202443
H           0.13928788952199    2.20822534930794   -1.12993708347786
