    23
        -45.37367481  Gyration_radius:  2.49519711446 Dipole_moment: 4.203
 S          -0.90063574899380    0.54892949406917    0.85569613073727
O          -0.63491951052574    0.65280504354045   -0.59542995437925
O          -2.01172785742557   -0.34268259905996    1.12145239348394
O           0.31203096620680    0.21078606445180    1.56516587718139
O          -1.30465961333497    1.99065359582563    1.32646961722340
O           1.71650730571531   -2.29159028254053   -1.48623433004431
H           1.67654920407955   -2.76545108126586   -2.31871155194278
O          -3.81666943468136    1.48082370657498    0.64267003590102
H          -3.33510200037805    0.62960136964941    0.72902302480206
H          -4.45397406978146    1.50165255716976    1.36003147296149
H          -2.23180965804335    2.08753546503623    1.02926422070227
O           2.78038367334022    0.92704073433490    1.22314483740706
H           1.83743117799683    0.77418301830740    1.48500853142894
H           3.28621920377459    0.27703054987026    1.71499823733872
H           2.39616773481167    0.61135010655573   -0.32066546815040
O          -0.82083956255651   -1.99661105094274   -0.78915584631285
H          -1.25960768310266   -2.15334397188698    0.05240582594516
H          -0.87599003206446   -1.02758632285811   -0.89086324037869
H           0.79568366886078   -2.30729560715866   -1.12768229016864
N           1.87182462927164    0.36898440661076   -1.20417406036365
H           0.83794563860803    0.56249560443620   -0.99019579505628
H           1.94886052352145   -0.66177146535047   -1.38903423227769
H           2.18633145472390    0.92246066495217   -1.99318345594228
