    23
        -45.37367542  Gyration_radius:  2.4936716433 Dipole_moment: 4.206
 S           0.87736577612498    1.02681003262958    0.07665537587443
O           1.16131017278754    2.34370613970183   -0.72919172837331
O          -0.59450759609834    0.90324107081796    0.15058670029860
O           1.43347567634112   -0.05687855373376   -0.70091091941712
O           1.45819404487686    1.16896030512999    1.39646262259611
O          -1.32703925395269   -2.86259108454029    0.66991298933213
H          -2.04868834623160   -3.19218855225375    1.20825613896217
O          -0.30240403181683   -0.88501740718396    2.10326122388215
H          -0.83145240442937   -2.23219313364687    1.24735656188818
H           0.61168709732897   -0.68230540010986    2.32357240904489
H          -0.55853891232685   -0.14825227002525    1.51709779650853
O           0.97402452087177    3.73122882168642    1.52450978577724
H           1.12277155441668    2.78689833212978    1.74782580540886
H           1.76923446006240    4.19773085860039    1.79136991504351
H           1.00086590302149    3.05949360077916   -0.08181141461004
O           0.60396209482380   -1.23903974562872   -2.85435199237170
H           1.10918247074977   -2.05379871542508   -2.88794373425439
H          -0.78863620745953   -1.21919750938627   -2.02210428519711
H           1.03042260695552   -0.69828617958610   -2.14258787412900
N          -1.52719484649354   -1.04406645260027   -1.28863135550246
H          -1.19156148649987   -0.18601833556700   -0.73771592661521
H          -1.54557049818350   -1.84424978275142   -0.60913625784148
H          -2.43690280486237   -0.87398602913189   -1.70248184628711
