    23
        -45.37367517  Gyration_radius:  2.49510385029 Dipole_moment: 4.198
 S          -0.30414981316699   -0.02778615193115    1.32052271605195
O           0.48489551800659   -0.04387271117056    2.67719939799672
O           0.42691339008944    0.90346982907751    0.43416149338894
O          -0.24324663704378   -1.37251723393527    0.79500033339087
O          -1.64808364485862    0.44615784942352    1.58348117372449
O          -0.46880210596314   -0.12292707986547   -3.18979468862919
H          -0.56978206746546    0.50464710008834   -3.90752569411129
O           1.65026619449679   -2.68284580859262   -0.39698183684711
H           1.76299292260883   -1.28267086103594   -1.20871812300678
H           0.97603894946996   -2.27492141253264    0.20302821085058
H           1.20297941260907   -3.42345607783897   -0.81130662084892
O          -1.71022681508619    1.02234937969735   -1.15027495759428
H          -0.92665237113014    1.19001566998969   -0.59327309610668
H          -1.05489700065995    0.20613618307146   -2.46524947745594
H          -2.34859996260626    0.66208618214100   -0.52742914231624
O          -0.89368738426532    2.07703698490818    3.47622291102329
H          -1.44178907466999    1.94628499085553    4.25318951886463
H           0.21911236163122    0.78827024747392    3.11800349764196
H          -1.37171552409536    1.65430656979791    2.73002868476450
N           1.63107826313360   -0.28662909970087   -1.53218981148414
H           2.50748623543035    0.13607807253863   -1.81673134360524
H           1.20849778812329    0.23666524523991   -0.69545912129139
H           0.91137136545908   -0.25587787770916   -2.29590402440368
