    23
        -45.35981437  Gyration_radius:  2.32610985163 Dipole_moment: 5.670
 S           1.09869230983239    1.69676689297957    0.72431399708180
O           1.01184672360931    0.95157234449400    2.08769966217420
O          -0.25177144883321    1.90741298346886    0.25639371979507
O           1.94126169357908    2.82881502977445    0.79679440135621
O           1.76808808686995    0.62696061723430   -0.18795921893438
O          -1.60034190430409   -1.48611516967444    0.57514535589452
H          -2.22849297814563   -2.18801739314668    0.40179234302896
O          -1.50694279920818    0.63908389671036    2.26053976659643
H          -1.61382666635169    1.33220897192358    1.59326684023522
H          -1.67642097352756   -0.20191258122461    1.79103317965370
H           0.02601388106814    0.81598258251418    2.28920236525948
O           1.05177291052575   -1.61657930860080    0.83487538956483
H           0.07421744834610   -1.68148621279394    0.74155516477016
H           1.51227069311620   -0.28718501822815    0.15345848555677
H           1.23028084144289   -1.45063106593739    1.76473615621530
O          -1.47373179895863    0.14754288299772   -1.39213907303323
H          -0.74761693690217   -0.12661246299106   -2.00080702570817
H          -1.61153660069804   -0.88122107725834   -0.23954307559896
H          -1.12333580549116    0.92344311019735   -0.91882281660727
N           0.77051372674421   -0.46937345699339   -2.80019627330396
H           1.39369920944727    0.02583495424775   -2.16986659520291
H           0.88022602367875   -0.07244361594459   -3.72477045542817
H           1.07513436416145   -1.43404688374823   -2.83670229336965
