    23
        -45.35981392  Gyration_radius:  2.32637938917 Dipole_moment: 5.641
 S          -0.09964538113233    2.12850755636057   -0.23072269677667
O           0.59718165752149    2.14069599861710    1.16063921033739
O          -1.33863980980110    1.39894533124148   -0.09098796921262
O          -0.17220127996118    3.42263317401214   -0.79364528159685
O           0.88087986043548    1.26402788200108   -1.07722045117616
O          -0.12138697245920   -1.65200702056626    1.53785342374606
H          -0.18028979224252   -2.56556463240723    1.81940020579115
O          -1.04181821331475    0.71802418640009    2.48773773443745
H          -1.70300297593646    0.88053729244853    1.79968233651311
H          -0.73465744337585   -0.19890467542724    2.34184926094386
H          -0.00787193773113    1.63392744394344    1.79939042133173
O           1.99065416111112   -0.29510726922740    0.63396603336679
H           1.34491178134166    0.61360210167636   -0.46111273184631
H           2.21188239494539    0.33312796239100    1.32713758442733
H           1.28507722002622   -0.87843573573654    0.99508678824109
O          -1.48328326508984   -1.25288657757137   -0.59349994441540
H          -0.68597421688137   -1.57196583493168    0.69860477117799
H          -1.61337366646021   -0.29127789598847   -0.50855535730524
H          -0.90410942442935   -1.36065192268068   -1.38450224079758
N           0.25951961348577   -1.19888525793291   -2.68168139104335
H          -0.12375008513945   -1.23934486570726   -3.61759922268770
H           1.08436076034314   -1.78518526319279   -2.65690423153206
H           0.55553700474504   -0.24381197772397   -2.50491628192402
