    23
        -45.37367562  Gyration_radius:  2.49324906831 Dipole_moment: 4.202
 S           1.06144722114353   -0.68075756664148   -0.47501091704804
O           0.09379159022041   -0.89411936090013    0.62271318710366
O           2.32978318309764   -0.19633276673670    0.03090398428934
O           1.29797829007483   -2.09062777807686   -1.12384674567400
O           0.47825152117467    0.14999731049178   -1.50374997191840
O          -1.68242134520995    2.50491669770425    1.15384607002459
H          -1.95556322042466    2.82335716837435    2.01592155812667
O           3.18919293276536   -2.57671952609551    0.67212140405452
H           1.90825332193714   -2.54081975643766   -0.50544100849691
H           4.07219284954481   -2.70691489097257    0.31917764870567
H           3.02357406037242   -1.60942450016955    0.64457531915304
O           0.73584443451657    1.50905174283461    1.57695301787434
H           0.52084102801898    0.56887639180107    1.42949929718924
H           1.55768336227582    1.62531928946654    1.09108607557293
H          -0.72643791939853    2.27369851420339    1.24732692343486
O          -1.91096915857334    0.20204311812579   -2.50788912087920
H          -1.95597789363535    1.03954234187259   -2.97341538740314
H          -0.95612250326481    0.08808719365068   -2.26983833885564
H          -2.29879095299386    0.16000334838715   -0.93293512001729
N          -2.25030496357470    0.09846396015373    0.11965010458072
H          -3.02989630120157   -0.42387137763432    0.50327590414049
H          -2.18346631533446    1.06429934970999    0.52600075220973
H          -1.31888320183213   -0.38806890304559    0.33907537422125
