    23
        -45.37020840  Gyration_radius:  2.46769739137 Dipole_moment: 3.286
 S           0.90935009038958    0.79974199933788    0.54635885087853
O           1.30403441595092   -0.58059418176279    0.41015090402042
O           0.49053665260777    1.17722667868750    1.88208559615707
O           2.16318646794865    1.66571768407919    0.16460662989294
O          -0.12746759975341    1.14028309713814   -0.45788880826878
O          -1.78441820113691   -2.68239189451088    0.21630722874567
H          -1.85055440901202   -3.25480653511942    0.98182835639936
O          -1.79576747951248   -0.17185567665656    1.16572873560697
H          -1.42594551227543    0.40492954019421    0.47629925602013
H          -1.84305875297064   -1.76246000113881    0.56200142523505
H          -1.23530560710355    0.02262949452318    1.92601688234697
O           1.21721308552355    3.67183785083223    1.61640045617222
H           0.75249342419994    2.84988551550188    1.88443311576642
H           1.75314348475975    3.93363813875828    2.36842459915966
H           1.96057963511698    2.55647408342591    0.51781990871283
O           0.49719300230854   -2.53508472311922   -1.14092091485719
H          -0.32925714338219   -2.77412107014635   -0.65895197344635
H           0.02847850129314   -1.44482622335523   -1.97700873610367
H           0.98567527620566   -1.96352639336325   -0.50744503450582
N          -0.33915966519190   -0.49423912081761   -2.42873909144167
H          -0.23123024493279    0.23875217178513   -1.63434315922889
H          -1.31869832998367   -0.57546836792780   -2.68268544877168
H           0.21897886901052   -0.22174204615930   -3.23047876853162
