    23
        -45.37367571  Gyration_radius:  2.49362468668 Dipole_moment: 4.203
 S          -1.13908744950625    0.28350593608811    0.66535688071716
O          -0.65708355868503   -1.03435437219282    1.01090957851733
O          -0.95929112514041    1.27350119306631    1.70801081006367
O          -0.53712356072242    0.73263160694300   -0.60861266195237
O          -2.67748646292284    0.13574444640584    0.38913473325531
O           3.16841636770746   -0.38362960893233   -0.49225668065646
H           3.88235835764829    0.13202067480763   -0.87111678515805
O          -3.00204740715518    2.70943540419630    0.94579152124685
H          -3.01389297586577    1.05446209449443    0.40687839604627
H          -3.56104943514657    2.90136735764811    1.70207164931031
H          -2.13959146633733    2.41530115247402    1.31121875141284
O          -0.18453721638784   -3.12634097534442   -0.44560268055722
H           0.35101282091156   -3.69119767115005    0.11503869315723
H          -0.51852047211280   -2.40969489794469    0.15110793619843
H           0.55257606606821   -2.00735784225428   -1.36067467173371
O           1.66021720441064    1.41613853591222    0.73392301116218
H           1.27612884811181    1.41796222777950    1.61569385444246
H           2.67962059148892    0.23660881062558    0.10157376287469
H           0.88005965446759    1.35595460516312    0.15108735892584
N           0.91049687039778   -1.09375689147171   -1.74964370285702
H           0.89468702823714   -1.08327837923527   -2.76325802044892
H           1.86900210134299   -0.90003693019492   -1.36729146348752
H           0.26513519919633   -0.33498647686198   -1.34934027046966
