    23
        -45.37367530  Gyration_radius:  2.49238998509 Dipole_moment: 4.206
 S          -1.30725580314456    0.19591846757970   -0.25129023945853
O          -0.67574442800798    1.41323730986511    0.20461903582457
O          -1.63632880211133    0.19049804680516   -1.66223242603479
O          -0.48250166053905   -0.97706492129686    0.11031717427005
O          -2.64126661725941    0.05557143409322    0.56468185482855
O           3.19050389422258    0.08707828746359   -0.49595045683442
H           3.86254299419827   -0.51313607465808   -0.82356768188679
O           1.07004826633414   -0.45134794438255   -1.99045716570209
H           0.51135254588675   -0.84322243269848   -1.29320878539216
H           0.46376272799575    0.13263571410685   -2.45561005271594
H           2.44119251634656    0.02110514013491   -1.13644649193972
O           0.58046640331982    1.95984881007721    2.40537510854043
H          -0.03887056123596    1.83207171039460    1.64294863004591
H           1.30130677168460    0.55224181424538    2.04250192305703
H           1.04581498561215    2.77732175246286    2.21687310394463
O          -3.64121197191859   -1.45723460066410   -1.37205239745507
H          -2.87254094281956   -0.96025229745520   -1.72691198279529
H          -3.15484919811813   -0.61644153361922    0.07262350510198
H          -4.41567547984250   -1.10404269524182   -1.81552080931815
N           1.56231859003323   -0.36247817946286    1.58489867305607
H           2.31741043714844   -0.19741576758127    0.87424758296192
H           0.69241041164290   -0.67103233045935    1.03682553761820
H           1.82711495038303   -1.06385969971191    2.26733636028112
