    23
        -45.37020845  Gyration_radius:  2.46812808928 Dipole_moment: 3.292
 S          -1.16511381040298   -0.09003719539575    0.63038484487158
O          -0.95086406279882   -0.10457666048799    2.06426831328454
O          -2.70782347077078    0.04779824739128    0.36844202505479
O          -0.54934852246757    1.10663867452680    0.00738676280393
O          -0.73619392501650   -1.28621180917333   -0.05144187659580
O           2.98111860169643   -1.15765862422024   -0.45030912837959
H           3.40612576131801   -1.84941280359465    0.05874244980600
O          -2.95585209650622    1.48765356724502    2.58009180713394
H          -2.09786570646475    1.01217778438354    2.61530282116501
H          -3.01440848028188    0.68598605181866    1.04523571497930
H          -3.50297210216057    1.10384908529595    3.26904486005223
O           1.65575973389864    0.36246571831134    1.32095773838631
H           0.99007892869385    0.87208809527595    0.82910059684549
H           1.12591502229937   -0.08449820832810    1.99137853799474
H           2.54000221600670   -0.57193098501852    0.20652806282408
O           0.92245146153383   -1.72761985311355   -2.03347561075394
H           0.23809729892740   -1.80176361455776   -1.33138347808010
H           0.66020696796448   -0.33208703238411   -2.33411307992114
H           1.77021522524947   -1.65843976497329   -1.53466123365539
N           0.41395185429394    0.75527294015701   -2.34841899463316
H          -0.03375850753816    0.94089241733367   -1.37628448315276
H          -0.24807253544336    0.97850833167275   -3.08366634377522
H           1.25835012794156    1.31090564781067   -2.44311029622698
