    23
        -45.37014324  Gyration_radius:  2.46638459917 Dipole_moment: 3.498
 S           0.95932999098589    0.44493320277287   -0.87797526788815
O           0.64618373525523    0.96041676321033    0.47748502556622
O           0.64023723767410   -0.95870088088931   -0.96513768610334
O           0.34371860038829    1.26502110335537   -1.90265457028216
O           2.51774302995599    0.56515646714329   -1.02559262527604
O          -2.66950431919569   -1.51854821674768    0.66452802937319
H          -3.45675669467986   -1.77644921915876    0.18352447682581
O          -1.89443270692574    0.85379437042414   -0.32386796639460
H          -1.67809569730892    0.93051374181472   -1.25942904830429
H          -2.40798310253777   -0.64244588732422    0.29976381581045
H          -1.05140833914244    1.07189573165819    0.11046631510048
O           2.24078156249351    3.05958353890775   -1.88198877527401
H           1.37362853680714    2.60564551594023   -1.95827134848563
H           2.67138292095210    1.51110318610428   -1.22744206045630
H           2.53685365062526    3.22288940847384   -2.78029689182368
O          -0.29263303960176   -2.76186989496672    0.69441258031019
H           0.13187778268888   -2.28889669529046   -0.05546097888790
H           0.00467187030825   -1.72608417103428    1.69918699464221
H          -1.24653934213147   -2.55654679469100    0.60071860966891
N           0.13280735964817   -0.79624360182147    2.28406840161599
H           0.40548076578420   -0.04243411321006    1.55209695603490
H           0.85246279497686   -0.88011229965200    2.99356850649965
H          -0.75980660707003   -0.54262125508216    2.69829749766695
