    23
        -45.37367520  Gyration_radius:  2.49260964244 Dipole_moment: 4.198
 S          -0.73282554897028    0.91643505263609    0.65938364625175
O           0.38379596066740    0.46755194263885    1.45959701265755
O          -2.01966486474183    0.42377493548933    1.10701967899809
O          -0.74624563859958    2.48339265768898    0.75553500394191
O          -0.50392094376663    0.59726942826313   -0.76630894162395
O           1.11074149208492   -2.92127528776240   -0.82382100134038
H           0.92893927250989   -3.56511278306462   -1.51057555576273
O          -3.33357120350345    2.47564820943145    0.16789502829462
H          -1.63219252940014    2.73744735729284    0.42673073933201
H          -3.07636730974766    1.57583392786340    0.46448655474405
H          -3.91502058265895    2.82495654279638    0.84690051850441
O           2.93655086832449    0.54548851970937    1.01668108270881
H           3.30937327382180   -0.05741630785790    1.66303168576964
H           2.44830800505651   -0.04530056376315   -0.41342455752316
H           1.98999318210639    0.66126293989944    1.28515466225162
O          -1.27020362534725   -1.90444071578497   -0.25963479476212
H          -1.70186110957201   -1.73987566781613    0.58385321497323
H          -1.11891152065222   -1.00737362017820   -0.61199493619073
H           0.22698669333690   -2.64119946244979   -0.48258890904476
N           1.85690871783991   -0.37788455699937   -1.22201084097867
H           0.89818690096216    0.08706894951399   -1.09068649447547
H           1.69854148113130   -1.41251603049754   -1.13949680887377
H           2.26245902887865   -0.12373548714536   -2.11572595778159
