    23
        -45.37014300  Gyration_radius:  2.46699198669 Dipole_moment: 3.497
 S          -0.39910171836792    1.11080557666376   -0.70182052118030
O          -0.75859215220767    1.56776174534717   -2.16022231336424
O          -0.22932792772111    2.29666674621753    0.11451658392781
O          -1.45872970746726    0.23412062043886   -0.26762986545934
O           0.87408438938072    0.35887067512041   -0.82197197738526
O          -0.15076391678794   -1.92911422966296    2.47846797790781
H          -0.45168985590573   -1.86673259787090    3.38576771945255
O           0.71271829983021    3.75053459492328   -1.83928134070918
H           0.52406931369743    3.36914935039175   -0.95449959973242
H          -0.18871645132804    2.34817021578199   -2.31958368866125
H           0.23297725738404    4.58087780713445   -1.88031189309530
O          -1.64755813052098   -2.32108795922487    0.28718864863430
H          -0.32446069294868   -2.37366951880453   -0.35780147294324
H          -1.32130907841458   -2.28787277395915    1.21096540857604
H          -1.82520503543142   -1.38154010335517    0.05903052975116
O           0.90859724270771    0.45428583812193    1.84238298695100
H           0.36381469572341    1.24699402933559    1.89411182523032
H           0.24644901479387   -1.05353039305723    2.26748363014946
H           1.13700343322335    0.41125044375772    0.89746895862882
N           0.70884625223318   -2.20529995260497   -0.71494719208112
H           0.79335821068946   -1.12859279435536   -0.82331532571205
H           0.89439850388768   -2.66770453895451   -1.59816928570058
H           1.35913806355905   -2.51434277137798    0.00217020680722
