    23
        -45.37367572  Gyration_radius:  2.4937255266 Dipole_moment: 4.202
 S          -0.35742748399873    0.49923518140055    1.20103838291777
O          -0.59111541882986    0.89749626580268   -0.20388597602785
O          -0.11052957305384    1.83156518711954    1.99359915122537
O          -1.52388162260581   -0.15205631396616    1.76212245140642
O           0.85986710572967   -0.27217464444133    1.30810947786408
O           0.35408894449661   -2.18035211844958   -2.35484149944517
H          -0.10780887293206   -2.42103120538082   -3.15977759255717
O          -2.72918686835880    2.09334590405014    2.32828699623753
H          -1.00564222057902    2.20713670333826    2.11707404082889
H          -2.53508603208858    1.16178983530637    2.08657935890430
H          -3.03309610675866    2.07566660449499    3.23854865180158
O           3.16119238246620   -0.01939949469493    0.14128299580400
H           2.36123148777954   -0.03500139353657    0.72517170848457
H           3.59883477034543   -0.85964926323379    0.29163728244226
H           2.19899659124175    0.14220274506563   -1.15544135743616
O          -1.58485111406163   -1.52948105313101   -0.67173940008636
H          -1.73127831493534   -1.78478218066637    0.24398097041649
H          -1.39241231855456   -0.57499346310020   -0.60848466135898
H          -0.34676341927750   -2.08637388202818   -1.66465733949726
N           1.35769899930443    0.23875038413341   -1.78545301489964
H           1.06482669233290   -0.70900609628783   -2.12944734306861
H           1.52954215978506    0.88503132452648   -2.54741733536236
H           0.56280023349762    0.59208095305480   -1.15628592886628
