    23
        -45.37367527  Gyration_radius:  2.49254472123 Dipole_moment: 4.203
 S          -0.47167753716917   -1.22085771370548   -0.31369112371108
O          -0.47548506545700   -1.01203330347451    1.11640795029827
O          -1.87540569304639   -1.82227193537562   -0.67794606311300
O          -0.38697150303134    0.07479454792589   -1.02148867066208
O           0.54898235869007   -2.13899701548887   -0.77658948361695
O           2.11307825270823    2.22786494339825    1.00442248809947
H           2.72303007460946    2.84504928774034    0.59658079275437
O          -0.82411168683957   -2.89500527903297   -2.86506205139999
H          -1.75701410668352   -2.18029219041087   -1.58085781568494
H          -0.09656777392176   -2.66451646897396   -2.24758973539711
H          -0.84430374643612   -3.85353981100740   -2.90868670320982
O           2.23587452327182    0.08611576582385   -0.55070695624823
H           1.33388842612394    0.13684514445080   -0.91901666185225
H           2.25650667179060    1.36758244357324    0.54044531216613
H           2.33251378887619   -0.84557867589111   -0.33265383123995
O          -1.65236886856910    0.78050847078961    2.57277676549342
H          -1.01942508721401    1.75090206135724    1.43708808962655
H          -1.33934403931200   -0.00954931685682    2.06361527315752
H          -1.21492125599076    0.72016172405554    3.42437849719027
N          -0.53007211788065    2.11498515700879    0.57558890301850
H          -0.53832108846520    1.30356627342339   -0.12713979537676
H           0.47842115536043    2.30468232355088    0.79770892023143
H          -0.99630567141187    2.92958358706512    0.19241590946760
