    23
        -45.37367561  Gyration_radius:  2.49352585708 Dipole_moment: 4.199
 S          -0.66177579478600   -0.67410541391816    0.96622253889391
O          -0.30189344661872   -1.30929280940906    2.35590727816479
O          -0.16621446442196   -1.58457861342090   -0.04063126621410
O          -2.09454703316697   -0.46280004966947    0.92199702354437
O           0.07023469842642    0.60943143356728    0.90276259354345
O           0.50978913504330    1.40710295076921   -2.85941085045350
H           0.48238935300758    2.29745712219728   -3.21384112238216
O          -1.49183139673222    1.34515643067191   -1.12576155835903
H          -0.31864091237659    1.30668999711526   -2.33029170543981
H          -2.18658041538398    0.69314587243513   -0.99406134542229
H          -0.96016954231270    1.27153230909641   -0.31090678999793
O           2.23276066676969   -2.05688212128027   -0.90280407112092
H           1.33918558318405   -2.02530622784934   -0.47661167511474
H           2.10107718126393   -2.52616092374614   -1.72903704577712
H           2.26985166133653   -0.43477720107321   -0.92271940057631
O          -2.27094499564290    0.07606971815065    3.47054124350716
H          -0.85166688532421   -0.81333937286566    2.99554888883943
H          -2.41747370760616    0.04638026410736    2.50026253830154
H          -2.97427765685530   -0.44576964685814    3.86326942262400
N           2.02290075952390    0.58471086731156   -0.80571037011401
H           2.82944485916470    1.14029183902253   -0.54381671227017
H           1.27215474749572    0.61550172443559   -0.03887573345244
H           1.56622760608827    0.93954182124215   -1.68203189068369
