    23
        -45.37367567  Gyration_radius:  2.49402137527 Dipole_moment: 4.198
 S           0.37515827298755    1.10613246225240    0.67532763253373
O           0.38676375706550   -0.05059315778427    1.54158037105397
O           1.69212536922685    1.57991504937994    0.30028980841083
O          -0.45932331178155    0.84576504364972   -0.51756247927508
O          -0.34981108601621    2.24929605655472    1.46999785209307
O           0.31379583159151   -2.79315409010614   -1.59082987125565
H           0.33965515218699   -3.07548844589311   -2.50665473244087
O           0.91356258110335    4.05216515687106   -0.00989843775352
H           1.38524172219217    3.19481178067378   -0.08956764175842
H          -0.12249558444576    3.06465049217861    0.97895829119661
H           1.50364128726548    4.63840133062111    0.46903143696138
O          -1.48504010368678   -1.71702445824337    2.20443701584249
H          -1.73444115254759   -1.67973806848351    0.60158673968738
H          -1.01648149392796   -2.46394390483866    2.58218752100685
H          -0.80385393091458   -1.00417072272758    2.10916049868530
O           1.58816372945602   -0.47070318292141   -1.60021603367688
H           0.91614150461267   -2.01177230174852   -1.53722725568827
H           0.82475870979378    0.10140411742217   -1.39561693892377
H           2.27787048561166   -0.13143292157816   -1.02206449201028
N          -1.68428479692010   -1.43963352661505   -0.42495495634751
H          -1.25375256919107   -0.45727766802029   -0.47227499731066
H          -2.59951206899963   -1.45410406649123   -0.86073708972500
H          -1.00788230454818   -2.08350499430363   -0.90495224147462
