    23
        -45.37367538  Gyration_radius:  2.49244475871 Dipole_moment: 4.202
 S           0.46140037827287    0.90695657338437   -0.87972306116428
O           0.11679070514194    1.31755779272805   -2.35534994219322
O           1.20795214234585   -0.32770296087016   -0.96306443143206
O           1.18723246024178    1.99890551410341   -0.26335309437554
O          -0.83525778530250    0.67846864283076   -0.20638505882126
O          -0.09896211091464   -1.77608749958611    2.69614268564699
H          -0.54734391128633   -1.73365367004029    3.54249892675657
O           0.43939888510094    0.75607112893653    2.13245598726034
H          -0.16616634933721    0.85600798358281    1.37409180303088
H           0.25341505892510   -0.86684276214381    2.53701332260182
H           1.24969504897866    1.17179693270586    1.82332773637468
O          -0.11398644633402    3.84317328537156   -1.57635315081069
H          -0.15585678550839    2.25486986187916   -2.28707694695357
H           0.38722328263660    3.34830425947894   -0.89249713944253
H           0.50865722791623    4.45705509058662   -1.97215945740376
O           0.44517950528409   -2.74893277717546   -1.48720096329462
H           1.18252821459972   -3.29623424982737   -1.20958163319514
H          -0.68728045258170   -2.35434486413338   -0.39429035382136
H           0.78665184446438   -1.81940763403484   -1.45921866729051
N          -1.28820837916113   -1.82681066400477    0.29473789195830
H          -2.26079913332889   -2.10755481903271    0.23975578556420
H          -1.17466157240660   -0.78923478338101    0.04375092499650
H          -0.89760183765815   -1.94236038131422    1.26247881592249
