    23
        -45.37367565  Gyration_radius:  2.49380140297 Dipole_moment: 4.206
 S          -0.53351731310696    1.23339126857609    0.11663139132231
O           0.45377451614596    2.29006595771265    0.02585806235727
O          -0.88498821930007    0.64132994907958   -1.15393153737644
O          -0.11017419554400    0.18650296169985    1.07150356775734
O          -1.85499503698389    1.84548705563870    0.70250026087355
O           2.05334999465055   -2.29941817994718   -0.96150138778578
H           2.81785647094803   -2.75061936616636   -0.59936012738243
O          -0.40790985573692    3.52681058006410    2.15713782267162
H          -1.54809333700598    2.44322663081023    1.41393766731105
H           0.15573500232584    3.16959984878963    1.43695850035631
H          -0.53555695765090    4.45749651153577    1.96015146477817
O          -2.14457360963844   -1.54917013469355   -1.73349222354686
H          -1.81967847669363   -0.63291430070619   -1.54349077217335
H          -1.94996025816077   -1.69775812492691   -2.66099663264069
H          -1.12327335912849   -2.13326314977832   -0.61601697700136
O           2.29405709958822    0.18556825672279   -0.07631479460780
H           1.52552069068316    0.18875076723825    0.52476394229931
H           2.20097643784228   -1.33947505109956   -0.77973541869227
H           2.21500351485968    1.02560820708952   -0.53803183139967
N          -0.38956567177603   -2.21836477782048    0.13792101988528
H          -0.63594456206595   -2.92052272429210    0.82643381667185
H          -0.32397279999769   -1.24658144998814    0.58940508634902
H           0.54592992568912   -2.40575073554795   -0.30033089000757
