    23
        -45.37137322  Gyration_radius:  2.42258016733 Dipole_moment: 4.867
 S          -0.24407837598417    1.08553806899249    0.52301390694737
O          -0.63649455017302    2.59843821943222    0.54120867548170
O           0.45441651360388    0.79723853497837    1.78597470797730
O          -1.48048123309536    0.32636989625146    0.42534606831113
O           0.62835278554173    0.84918605861134   -0.61821167762553
O          -0.57095202546396   -2.27427114655832   -2.52184880166142
H          -0.31500282012313   -2.42595364623353   -3.43287139104801
O           1.28135418194877   -1.74399421586753   -0.70213915175791
H           1.25363757797067   -0.76415487221254   -0.75711169417681
H           0.49737688074421   -1.90033341742169    0.53757484683395
H           0.67593507707757   -2.05468634923890   -1.42021119443558
O           1.54572371941471    3.20151554939471    1.91334603493453
H           1.39246953703567    3.58359694209642    2.78055570503471
H           1.39587397711426    2.23934780300059    2.00225103602420
H           0.14500935939883    3.07592929908632    0.89346582633707
O          -1.36403579577406    0.24926042067795   -2.30032239410318
H          -1.93307836409980    0.27357193408618   -1.51970658701833
H          -0.52290210049626    0.60316278224962   -1.95873086244355
H          -0.96339713433546   -1.36500984845903   -2.49824866953564
N          -0.15898658769408   -1.70333919552021    1.40677488328354
H           0.27022261678360   -0.87877812829656    1.89025287601473
H          -0.32792005914854   -2.50159801199669    2.00922909110089
H          -1.02304317022587   -1.27103666705635    1.02040875554017
