    23
        -45.37137323  Gyration_radius:  2.42260667657 Dipole_moment: 4.868
 S           0.60712326597018   -0.90892252248732   -0.56228654783755
O           1.28214289711266   -1.63183367801119   -1.77272322400868
O           0.29114763109363   -1.93643297555627    0.44286636505499
O           1.57318034357115    0.04714113529570   -0.04516933304315
O          -0.60445938546420   -0.25383215100832   -1.03380333597720
O          -0.70780089267610    3.35617608193087    0.29609813577452
H          -1.25731515574299    4.02182176072044   -0.12029597342791
O          -0.19768833362593   -3.79120813367941   -1.37615583668727
H           0.28937269422017   -4.59119438863299   -1.16561534929411
H          -0.22509166070459   -3.25803021392554   -0.55697404158876
H           0.76242666980355   -2.45029552604223   -1.92326130156122
O           0.60541667837467    2.06110434501608   -1.61264497354487
H           0.00118770387606    1.29872768362163   -1.66904254738555
H          -0.15304345461040    2.97004955901696   -0.42818380723367
H           1.38143633063574    1.68111514701767   -1.18012671602286
O          -1.76064673421460    1.03100200604902    1.00871973737294
H          -1.55452127328825    0.52883142705276    0.19068827539565
H          -0.67934748668511    0.49262751949873    1.85575216948658
H          -1.48248451825141    1.95973421867240    0.81169505602328
N           0.23963755048571   -0.01836360097977    2.20113404217727
H           1.00986485362205    0.34108816321772    1.60076901471278
H           0.15662153268728   -0.99920362817414    1.84219975431026
H           0.42284075408937    0.04989776140016    3.19636044731157
