    23
        -45.37137313  Gyration_radius:  2.42265116172 Dipole_moment: 4.867
 S           0.98366528380164   -0.72776950910840    0.12310861516590
O           1.74881254916803   -2.02528745427291    0.54035514157519
O          -0.31757193839001   -1.10973202378637   -0.40629615976534
O           0.86241693819163    0.09655393019966    1.31482016139714
O           1.79104670852218   -0.05289556382372   -0.90591401361308
O          -3.04446116144389    1.09858266735724    1.17674431659104
H          -3.96263897943554    0.82419724854000    1.17665402145861
O          -1.56897407027212   -0.96640574554899    1.95414829520536
H          -1.31658219466261   -1.26761374909501    1.06250727504571
H          -0.74558503404678   -0.58576630894997    2.28694017175632
H          -2.53646425857913    0.34720234384372    1.57495998326626
O          -1.67015131936955    1.09558932840535   -1.08909957923980
H          -1.28637060193439    0.19479395891441   -1.01758431890475
H          -2.28593732026257    1.16981669356082   -0.31832483089041
H          -0.47436537789653    1.85878496071236   -0.68359907300828
O           2.68546185383919   -2.32551744425979   -1.91775534481075
H           3.64117729525157   -2.29204872135836   -2.00129532319628
H           2.07695158853574   -2.42552780764993   -0.29316162499987
H           2.38122988913984   -1.40070232152551   -1.82714159758299
N           0.52202460997886    2.13302027348056   -0.28760485385556
H           0.74031861621797    3.12303195058598   -0.31764097033380
H           1.19822919789029    1.52423257094289   -0.80763201439658
H           0.57776773574876    1.71346072285373    0.66281173314815
