    23
        -45.37137315  Gyration_radius:  2.42265809201 Dipole_moment: 4.863
 S          -0.22110216879491   -0.44196766398722    1.12630351364851
O          -0.55593247638017   -0.34638810318413    2.65010950135266
O          -1.48158548050460   -0.34954672399216    0.40718864217858
O           0.67997998876302    0.64870991991175    0.78284891837398
O           0.42252252449808   -1.74571073502360    0.89825078185622
O          -0.56962097655828    2.38728679693296   -2.41612640627067
H          -0.28755638684562    3.27640119930909   -2.63576044388046
O           1.60072638134567   -1.75385201930271    3.26485910225829
H           0.23092913562740   -0.69419993737281    3.12182504862319
H           1.43413134754324   -2.58807942025293    3.70962082475316
H           1.41094468804693   -1.90059263719172    2.31696775503448
O          -1.27610241153981    2.35863714678633    0.14257085640608
H          -1.86925721115277    1.60192233171258    0.23942659325426
H          -0.43399851218228    2.01149778436669    0.48859968928887
H          -0.92929019506890    2.43670961280128   -1.49448253634762
O           1.23788351791595    0.53939535163028   -1.83132332045132
H           0.40652663799048   -0.67820512034817   -1.87655828455250
H           0.64614156578208    1.25727781854116   -2.16775802864954
H           1.24887635653371    0.65930770206921   -0.85694687449487
N          -0.27115366496878   -1.50810864814873   -1.59874879760204
H          -1.10537372961793   -1.06350157075870   -1.16407827453351
H           0.17173173666494   -1.95114821619142   -0.75865601480687
H          -0.48942064709046   -2.15584487826851   -2.34813224543213
