    23
        -45.37137326  Gyration_radius:  2.42283288213 Dipole_moment: 4.865
 S           1.00440857357271    0.68086157453218   -0.19786519795043
O           1.32254896333954   -0.34601632557375    0.78147482572613
O          -0.35873044477149    1.16919204116739   -0.04753399354533
O           1.98694643194572    1.87067345577772    0.05169449768212
O           1.24033820790247    0.19572024126778   -1.56707385815843
O          -2.35128174736679   -1.25800534221562    2.17944404750409
H          -3.15503249180403   -0.97804609271815    2.61984323966731
O          -0.50741537888612    0.61231123603378    2.56540612504986
H           0.34179612931760    0.16717300765904    2.44549252614002
H          -0.62828515111901    1.06882158629326    1.71314033228876
H          -1.65797276865088   -0.59823412512080    2.43480604458008
O           1.82900708580269    2.60273253188916   -2.48796918543618
H           1.96967109369554    2.41190949376857   -0.76644164080650
H           2.65458636081515    2.57220235969278   -2.97681498227817
H           1.50869096091954    1.68110915545585   -2.42426754888476
O          -2.06531999750300   -0.85651741049337   -0.42458731786675
H          -0.88380845079476   -1.69577604987562   -0.70042299181552
H          -2.30327963235593   -1.06301018692302    0.51313712490953
H          -1.60784151900120    0.01113725414265   -0.38199734242487
N           0.15777308545622   -2.05024845068936   -0.82070483536777
H           0.60349819009970   -1.36711653828597   -1.47824509022575
H           0.25363482767657   -3.02150121284728   -1.09670435757478
H           0.64606768170856   -1.80937220293200    0.06618958878837
