    23
        -45.37137316  Gyration_radius:  2.42261892322 Dipole_moment: 4.868
 S          -0.93046603592093   -0.48342692096068   -0.64241440687488
O          -2.42697895813625   -0.82154351844566   -0.94179228826430
O          -0.45039937739212   -1.47882728017957    0.30273453788081
O          -0.19759598460682   -0.56744158675949   -1.91584522262278
O          -0.86309179733978    0.86281440716508   -0.09252367913507
O           1.38030390411475    0.85721111349804    3.03524372211916
H           1.32504206515862    1.55794422730724    3.68657874733502
O          -1.08878922500135    0.07536893588762    2.45437412068986
H           0.45708881103696    0.51550154362807    2.92456483950604
H          -1.18679647916001    0.60346002910708    1.64133926121666
H          -1.00170775481776   -0.82340217300286    2.11067740634738
O           1.68423422835517    1.45597583699483    0.47154732967390
H           1.68163354386457    1.32626120397732    1.45230240144902
H           2.03064516047088    0.13042261156501   -0.07586707063061
H           0.73600397809045    1.46369088908785    0.21724680480611
O          -2.25363887113804    0.29258757443884   -3.33750130145312
H          -2.40814524993755   -0.29835482932623   -4.07807467222081
H          -2.65055305828618   -0.34811411817944   -1.77157014268811
H          -1.34390354327582    0.11625118547015   -3.02545871458782
N           1.96439786811370   -0.88824617877102   -0.50336304353085
H           2.85377123312666   -1.35441044483196   -0.64643052533140
H           1.38655779818651   -0.78198071558960   -1.37103280122154
H           1.30238774449272   -1.41174180208924    0.10526472752491
