    23
        -45.37137319  Gyration_radius:  2.42270345258 Dipole_moment: 4.867
 S           0.42307689665104    0.53944421521237    1.02105457735531
O           0.38572088138502    1.54348885751316    2.21848945371428
O          -0.38632636408080   -0.60706090578739    1.40170556189539
O          -0.10617887514847    1.20876700252936   -0.15847812030829
O           1.82766982730252    0.15006652291177    0.81747744792055
O          -2.66023701454374   -1.08634044956847   -1.89845332971902
H          -3.31038974053988   -0.73054738664024   -2.50592932564625
O          -2.63472004911203    0.44598648860298    0.26875153925908
H          -1.86829587333541    0.99094498690570    0.01358830714038
H          -2.75447061538435   -0.56279152878371   -1.06275539755019
H          -2.27211862526931   -0.10736608075791    0.97305902143487
O           2.75334541008951    2.51761992640312    1.54322187041129
H           3.44523579222916    2.41031107158530    2.19994445025972
H           2.65188746331455    1.65138674412493    1.10124553961315
H           1.14259240759625    2.15311839521816    2.08403805657309
O          -0.09542301063036   -0.49983632591429   -2.21748113824017
H          -1.05171362751372   -0.75209639567686   -2.24159233263348
H          -0.05762413064894    0.28316648773906   -1.62642814557872
H           0.52285458238160   -1.47642263094750   -1.30102404942838
N           0.93133051352272   -1.96917574209030   -0.39798413308562
H           1.64840097860598   -1.30210346715352   -0.02520488503777
H           1.27112469042346   -2.91437294895668   -0.53892098357938
H           0.19425846272796   -1.88618681650398    0.33167603524491
