    23
        -45.37137309  Gyration_radius:  2.42231858914 Dipole_moment: 4.866
 S           0.39274210980319   -1.11657137465799   -0.33130885011510
O           1.20173611575504   -0.64859192510069    0.78275357655758
O           0.96833855057226   -0.69055648163103   -1.61713049589558
O           0.42892553693457   -2.67887999986348   -0.29830274324778
O          -0.99261004837562   -0.68498025049738   -0.21409019502321
O          -1.24006029204881    2.11087388912139    2.42071657551967
H          -2.07533743416362    2.32291352031256    2.83990774512263
O          -1.08190132720301    1.98842523263877   -0.22196162461212
H          -1.25085520938828    1.02691628525868   -0.32700763825125
H          -1.20801131752351    2.16316364654540    0.74355245273814
H           0.38162252827711    1.95897957746817   -0.40495792015807
O          -0.94698605465557   -0.52721771856569    2.45748004676228
H          -1.26821544041874   -0.69006931684606    1.55232618869435
H           0.00335720495823   -0.68095271759395    2.37236092515870
H          -1.11054010866124    1.13744866642703    2.55026832736978
O           0.02893961321361   -2.79474256217861   -2.91311358100053
H           0.33298873698961   -1.89044258630836   -2.69907575073391
H           0.73271292165010   -3.20735857932132   -3.41905104427644
H           0.14032167069348   -2.97479737046900   -1.18808547567128
N           1.42915077050666    1.61553624416066   -0.50338075520067
H           1.40981124049214    0.90034670169385   -1.26926764420384
H           1.60983094902309    1.00849668506921    0.32189948076769
H           2.11403927371243    2.35206042433435   -0.63453159024752
