    23
        -45.37137319  Gyration_radius:  2.42265860105 Dipole_moment: 4.867
 S           0.23285089058355    0.00850280438019    1.20755465574720
O           1.63765431903625   -0.41310035484744    1.08567843550625
O          -0.03603004961953    1.16704844302357    0.36807902692578
O          -0.66973132971815   -1.09330759662362    0.91475886931465
O          -0.00614491086565    0.41128421278275    2.69884252322362
O          -2.27153230266937    0.11630850933881   -2.58473179838869
H          -2.78167239750681    0.76223494478109   -3.07556517471444
O           0.32259316287736    0.49659286075456   -2.19745051172423
H           0.26868531548660    0.94785172511454   -1.32724140531896
H           0.72092155601557   -0.83795877767584   -1.71007565731332
H          -0.61799772585933    0.38564170227533   -2.48322358432890
O          -2.62174135620580    0.58352538804505    0.00475847490917
H          -2.51070116304789    0.24770476537722   -1.63250053500335
H          -2.42165017002215   -0.25161610851041    0.44765716837491
H          -1.80330675712114    1.09478860859996    0.13986959200114
O           2.47646832222364    1.30720520463990    2.90908862869914
H           3.02292559337908    0.85567138771357    3.55646284925396
H           2.43625120035384    0.72551318845666    2.12416291697057
H           0.78064388093920    0.93211192705758    2.96785737909642
N           0.93035537656410   -1.70737046992906   -1.05819334492245
H           1.58168302969397   -1.34462025748200   -0.32187337718857
H           1.26116468600954   -2.53690598530591   -1.53892215059478
H           0.06831084949450   -1.85710613193651   -0.49499298053462
