    23
        -45.37137322  Gyration_radius:  2.42253472102 Dipole_moment: 4.868
 S          -0.25439530049110   -1.18586122867603    0.20006285605444
O           1.04224469087504   -0.54039239751860    0.34680466826867
O          -0.93681967498972   -0.76035219399442   -1.01152993965657
O          -0.02868144471543   -2.72795429807425    0.08017017770638
O          -1.09331322263156   -0.95500620799082    1.38699421845411
O           1.25834496739970    2.45888028147563   -2.05558373081812
H           2.10528506041245    2.82754750133607   -2.31090166748234
O          -0.04778072821057   -2.98776385103578    2.71505274068615
H          -0.74758380626446   -3.54134781313095    3.06905799020466
H           0.15448871086083   -3.04560214714631    0.99018863599477
H          -0.45627400498358   -2.12607689422216    2.49913239045742
O           0.69158090875370    2.10711079060980    0.50914459136985
H          -0.75745269634103    1.84049050171212    0.43308755897405
H           0.99613464573783    1.17745326585768    0.59221991469379
H           0.94375888452240    2.37406925507664   -0.40953491460801
O           1.40975489048202   -0.18173412976343   -2.27911583179152
H           0.49742907044768   -0.48562279315817   -2.37428946214969
H           1.31263046480539    1.49014355103652   -2.25546849409064
H           1.59578550155537   -0.36461922921275   -1.34031967764043
N          -1.73645360621814    1.33462352929918    0.33030834399159
H          -1.72688176938400    0.57452590805841    1.05147443579396
H          -1.67729680428106    0.77155865782509   -0.54275878175153
H          -2.54450472734264    1.94592992164008    0.37580396733415
