    23
        -45.37137319  Gyration_radius:  2.42265152189 Dipole_moment: 4.867
 S           0.84080413396124   -0.14401705131509   -0.88587227517202
O           2.18175458968196   -0.65711923498290   -1.50376473891799
O           0.39353687481312    1.00092593234597   -1.69525804794576
O          -0.11041965620707   -1.24106809549903   -0.96340120621950
O           1.09158114356054    0.25959413917031    0.49013786628193
O          -1.62634669024078   -1.22765242875261    2.77533543496032
H          -1.48617643153876   -1.31688908007077    3.71912943178462
O          -1.19728039668218    1.10349806942762    1.58984587778661
H          -1.82544882532418    0.85823909200931    0.27747123165629
H          -1.43531937312033    0.31011491401776    2.13074370854024
H          -0.26426432200365    0.95454922400848    1.32325075266117
O           2.85947926116266    1.80336410466427   -2.20811036997472
H           2.96640306935738    1.94561160169881   -3.15142277675038
H           1.89725857788794    1.79883767298764   -2.03432213401802
H           2.70686447227877    0.14464535911929   -1.71390112977660
O           0.53376934229781   -2.14084244849027    1.53174950988339
H          -0.85616130789862   -1.67586143304923    2.34273831266894
H           0.23938690825102   -2.37881692820219    0.64276140783640
H           0.95708043580998   -1.27493805585789    1.38854213416057
N          -1.99862247610231    0.55563061202924   -0.77284183721418
H          -1.25317735554116    1.04493012478369   -1.32324370374745
H          -2.94101498268437    0.70759843710341   -1.11561208243205
H          -1.67368697164717   -0.43033453710593   -0.84395538604228
