    23
        -45.37152244  Gyration_radius:  2.43833896092 Dipole_moment: 4.152
 S          -1.04359757400001    0.11008551527834   -0.60141261858263
O          -1.17672402373833   -0.73305772361356    0.56832552946184
O          -2.12565388727744   -0.36012561308996   -1.62611231391825
O          -1.28680193005468    1.52581725142138   -0.30617495484808
O           0.27255294660002   -0.04509580281209   -1.23137103499093
O           2.29112294669183   -2.08138422168952    1.59039625690258
H           2.38464943965848   -2.87416913342590    2.12042330989354
O           0.55093880314566   -2.58523591702453   -0.35314588997351
H          -0.24755488003582   -2.27209153201040    0.10199890501266
H           0.71366579632138   -1.87784208527539   -0.99515780092283
H           1.72897925197158   -2.33566606470361    0.81590241531018
O          -2.37979160445168    2.08033502537798   -2.63082878041036
H          -3.26459333047338    2.43584497881761   -2.52106032873489
H          -1.94458030166187    2.14189566386232   -1.75522832281254
H          -2.26608901253397    0.38694927587875   -2.24617030659832
O           0.71612061046807   -0.09697859810306    2.37350445210386
H           1.35877656848329   -0.83240238709619    2.21887816669221
H           1.13211337200360    0.96228081773925    1.41440299285844
H          -0.10263139402992   -0.37745259775850    1.91478510441631
N           1.21094731841222    1.59856041454033    0.51897598182343
H           1.19016990817113    0.93004775996733   -0.29879397274975
H           1.99787315418504    2.23849678588615    0.51782062295965
H           0.29010782215974    2.06118819784285    0.41004258710023
