    23
        -45.37137319  Gyration_radius:  2.42291212125 Dipole_moment: 4.866
 S           1.12226065351182    0.43165393821441   -0.25670152474395
O           2.58201012260804    0.35590145178021   -0.81059591045807
O           0.80642277450632   -0.83590645803490    0.38604992017846
O           1.07690310759088    1.53761700773023    0.71320826699638
O           0.25047154807794    0.69551080536299   -1.39026934299063
O          -2.64753384213006   -2.05130076081793   -0.80460198928934
H          -2.90193287627594   -2.97169688709044   -0.72350616185409
O          -1.70482487543016   -0.75355903452017    1.30509719975240
H          -2.16559220473212   -1.28089130333722    0.60629408054029
H          -0.74868296461193   -0.91646688574261    1.15284002974324
H          -1.75464852432947    0.63654063057892    0.81439853736671
O           3.56328862991416    1.14157436611449    1.51960018072593
H           4.04768557435574    1.97021873365785    1.50297853592763
H           2.61356634594643    1.37357724450703    1.50421486539674
H           3.17195706501589    0.47128638710329   -0.03517773329249
O          -0.19792985080760   -1.96184512233664   -1.82363579683106
H          -1.78241916456932   -2.05049612854765   -1.28708957179593
H          -0.11494789570170   -1.08514530458278   -2.22138012412622
H           0.27337578212390   -1.85469199688169   -0.97754956490232
N          -1.49661400893245    1.59823154990255    0.33087084369404
H          -0.57747096826882    1.87573236825094    0.75055274098122
H          -2.21408649060418    2.31322753211706    0.38263374225819
H          -1.20125790727199    1.36092785656023   -0.63823120329139
