    23
        -45.37152223  Gyration_radius:  2.43840989971 Dipole_moment: 4.157
 S          -0.92134746958637   -0.50558702619312    0.59965564322380
O          -1.82846653864775    0.64603677066668    0.56578604744564
O          -1.56638019325559   -1.59932741617486    1.51051113321561
O          -0.73115742608457   -1.10287785084044   -0.70573447432202
O           0.35668757123467   -0.11162683326487    1.20373227367019
O           2.86890189167760   -0.43605532170745   -1.92668802209368
H           3.27569029834802   -0.98914064728862   -2.59509689739242
O          -2.85848035139272    0.21803614902975    2.94526889952692
H          -3.81209599640557    0.11953729886371    2.89748042137914
H          -1.99122591866919   -1.12489300584288    2.25662675121418
H          -2.57784481640177    0.62327798654089    2.09858312254110
O           1.73401303662022   -2.02248284825534   -0.12212339967460
H           1.59478543306224   -1.44122708159223    0.64050167774798
H           0.84865790677547   -2.05903454435543   -0.51928081916612
H           2.55821853178537   -1.05125692553735   -1.21586854063603
O           0.48747109219955    0.65397433806546   -2.34095521989161
H          -0.06235709367511   -0.05641084741249   -1.95037692908932
H           0.42643297849199    1.60763773648578   -1.20034300176335
H           1.41122583229363    0.30161499393801   -2.31852934724225
N           0.26404373178703    2.04591558096347   -0.20302962455063
H           0.65400524345918    2.97349905893456   -0.07554735914567
H           0.62369440154345    1.32266063143018    0.47842883620583
H          -0.75447215515340    1.98772980353414   -0.02300118119351
