    23
        -45.37137321  Gyration_radius:  2.4228630743 Dipole_moment: 4.864
 S           0.04714436232122   -0.29083087736406    1.19409100339790
O          -0.20610028085176   -1.20398230162364    0.08904800733274
O           0.48995161619489   -1.12843574559617    2.43721376127174
O           1.13028170316752    0.63246344421956    0.89548540549163
O          -1.17766324159929    0.43495838740916    1.56674594377505
O           1.51988430220418    0.11979425629582   -3.08827922716414
H           1.70939848089337   -0.46044836271193   -3.82702166917792
O          -2.03247765584543   -1.50117040094701    3.15063716403571
H          -0.33011427344811   -1.52419768023176    2.80258719434252
H          -2.27528069857779   -1.13973641290945    4.00616278748583
H          -2.00857132607136   -0.74863633690135    2.52678347397139
O           2.29292844109401   -1.10123886463780   -0.86184899789711
H           1.91885871835993   -0.31447246912181   -2.29234045007838
H           2.43141544503763   -0.39661597917749   -0.21521912381293
H           1.41720389728275   -1.44735862211817   -0.61148503928506
O          -0.92460812096519    0.20605753795075   -2.06875281891462
H          -0.82171731279335    1.40797889755896   -1.21958172527841
H          -0.07755778768784    0.18971972809358   -2.57972664191365
H          -0.80577198178186   -0.46775014969483   -1.36472976917234
N          -0.63396716986424    2.08884516561017   -0.36743135553213
H          -1.18069405666554    1.68414086344238    0.42955982945566
H          -0.82072663847251    3.06903960110150   -0.54917949495825
H           0.33818356806461    1.89187634135857   -0.05271826736700
