    23
        -45.37152219  Gyration_radius:  2.43829389606 Dipole_moment: 4.156
 S          -0.67962116699352   -0.02778622417759   -1.00097582628172
O           0.24417814721941    0.69396422765735   -1.88187093904258
O          -0.00033599054366   -1.18982396756266   -0.41657112333425
O          -1.25327850957947    0.82270964842509    0.02109805522157
O          -1.86505331242066   -0.55265864353517   -1.87358137420704
O           0.15450681498244   -0.16692751341391    3.47499862429073
H          -0.31285840500145    0.05243492198187    4.28224687081906
O          -0.33838717435157   -0.69281934344616   -4.03679202725179
H          -0.64404789028321   -0.12108999613373   -4.74462725254745
H           0.09696406369160   -0.11225274337133   -3.37854628212534
H          -1.47655430687630   -0.83794998193751   -2.72798314172808
O          -1.59556940004457   -1.20300400121941    1.76520518948178
H          -0.49550579842013   -0.65208472351236    2.90708812772949
H          -1.83430587977854   -0.37968537844947    1.30903715667351
H          -1.04030695219584   -1.64958176257312    1.10858251396510
O           0.68476078134945    1.70101252515526    1.66963995950296
H           1.63004290415681    0.96207190941014    0.79007863453756
H          -0.11860859677060    1.59678947477264    1.11900942922663
H           0.54421169835121    1.09821932426089    2.44099953118239
N           2.04759043443916    0.31930341339017   -0.00105265684813
H           1.77238030872527    0.75143429234946   -0.90146293080868
H           1.43874348246126   -0.54435322619188   -0.00545378474634
H           3.04105473787315    0.13207775812443    0.08093322628925
