    23
        -45.37152238  Gyration_radius:  2.4383871426 Dipole_moment: 4.159
 S           1.10015565258257    0.50153749784955    0.04875962766531
O           1.05865048195779   -0.62940245511832   -0.85492536063227
O           0.21926177491396    0.30033994800754    1.20490871151261
O           2.56748694704808    0.60888409457281    0.57563575088121
O           0.76525320960292    1.76549561027834   -0.61475329079217
O          -1.93481054660962   -2.89442000935066    0.03928935467193
H          -1.95825687050036   -3.81660480083920   -0.22014005538704
O          -1.45571155402264   -0.99233574881967   -1.74465421028933
H          -1.80608868893069    0.21403806638254   -0.94754530164973
H          -0.48299280563065   -0.94300908507298   -1.64053680427128
H          -1.73412711405967   -1.75190529761195   -1.17584101606183
O           2.38718039440100    3.24161593244099    0.83290398264427
H           2.68003126680484    1.52751504908552    0.90088922816791
H           3.01430149451552    3.71202589317863    0.27898426161447
H           1.67108443223900    2.93108895621279    0.24069750099817
O           0.45254687114045   -2.39099732817573    1.09138411097871
H           0.88936865541673   -2.08315884951079    0.28047513692380
H           0.31970865944391   -1.56540668205634    1.58070264101236
H          -1.08212381013773   -2.76992550997003    0.52703589778251
N          -1.75136913277582    1.07601254181173   -0.26395515796342
H          -1.22462844026418    0.72436550583517    0.58217822384696
H          -2.64311835385106    1.51055545197961   -0.05254460403614
H          -1.05180252327279    1.72369122895593   -0.66894860762123
