    23
        -45.37152245  Gyration_radius:  2.43831271935 Dipole_moment: 4.153
 S          -1.00063405624001    0.34145199690507    0.58611950566553
O          -2.52979966269086    0.27523625934361    0.90134427530875
O          -0.86226229065856    1.01257755616221   -0.68960009556529
O          -0.34577981716598    1.06794625192364    1.67880861528359
O          -0.49121222936641   -1.03347481108438    0.53040762212434
O           1.47475222894781   -1.03055728734129   -2.98000955006792
H           1.44967116848141   -0.93407764435027   -3.93304869130062
O          -1.02339207789802   -1.27367433760751   -2.10799444457065
H          -1.18936969484806   -0.33452373677319   -1.92568949583386
H           0.54606472556972   -1.23218550432360   -2.70192243431772
H          -0.92059183391618   -1.64206523504598   -1.21765688169486
O          -2.09816192663898    0.38719327062864    3.51504410976959
H          -2.49150478678053    1.16248597814638    3.92183844682431
H          -2.60931555040196    0.14101890505904    1.86978906849591
H          -1.29430406505139    0.69575988107707    3.04764157292772
O           1.73158370754023    1.08634040765119   -1.40470412128671
H           0.78042645258957    1.27115514172790   -1.26129429503271
H           2.00606381683813    0.41874421592376   -0.10394636742044
H           1.75070890164709    0.35190745574010   -2.06676345171130
N           1.87985401597455   -0.08013975788459    0.87005633754295
H           1.39455908857806    0.59968968353670    1.48335317306350
H           2.73119540586621   -0.46151379118224    1.26820753275911
H           1.11144848962767   -0.78929491823225    0.72001955903500
