    23
        -45.37152236  Gyration_radius:  2.43844732488 Dipole_moment: 4.157
 S          -1.02948796530766    0.14905298114297   -0.61818214518070
O           0.31648321772743    0.27678614249096   -1.18876297328033
O          -1.44550831018782   -1.25686688153489   -0.64161169892080
O          -1.10306083815835    0.72918310456809    0.70665928928863
O          -2.01391419469677    0.95717278632536   -1.52376727366455
O           2.45974528698500    1.39901259055138    2.02932836117723
H           2.62102034723630    2.04032870455923    2.72285166540824
O           0.85687558208473    2.51512040644225    0.22797667403042
H           0.96164571964859    1.95279755723533   -0.55404324842663
H           0.01310945914891    2.20453660499717    0.59495442291289
H           1.95805430372545    1.88033183078119    1.32425276286362
O           0.64318613353531   -0.50699920096774    2.34067217173820
H           0.96537511548639   -1.37544978742954    1.17596380353758
H           1.37086593443900    0.16255311392851    2.35681093412333
H          -0.12217865023474   -0.03757987111939    1.94924570896971
O          -2.50979304666829   -1.15904185935853   -3.04245645114659
H          -2.11699850392168   -1.46039875696586   -2.19704022385677
H          -3.43288661312169   -1.42154324985414   -3.02304835739391
H          -2.21674602758297    0.38490293637466   -2.29426539594691
N           0.99935367035120   -1.80812586593429    0.16376314192295
H           0.03644978000124   -2.12552238619496   -0.04876727296569
H           1.70869171911497   -2.52018996033213    0.02751800287157
H           1.07971786039486   -0.98006093969219   -0.48805189806143
